###############################################################################
#
#                    CRYSTAL17 CIF FILE
#
###############################################################################

data_OPT_STEP_1

_symmetry_space_group_name_H-M 'P 1'
_cell_length_a      9.45830000
_cell_length_b      6.01000000
_cell_length_c      8.55760000
_cell_angle_alpha   90.000000
_cell_angle_beta  103.583000
_cell_angle_gamma   90.000000

loop_
_atom_site_label
_atom_site_fract_x
_atom_site_fract_y
_atom_site_fract_z
C1 -3.619500000000E-01 -4.183000000000E-01 -4.209400000000E-01
C2  3.619500000000E-01  8.170000000000E-02 -7.906000000000E-02
C3  3.619500000000E-01  4.183000000000E-01  4.209400000000E-01
C4 -3.619500000000E-01 -8.170000000000E-02  7.906000000000E-02
C5 -2.207000000000E-01 -3.458000000000E-01 -3.383000000000E-01
C6  2.207000000000E-01  1.542000000000E-01 -1.617000000000E-01
C7  2.207000000000E-01  3.458000000000E-01  3.383000000000E-01
C8 -2.207000000000E-01 -1.542000000000E-01  1.617000000000E-01
H9 -1.894000000000E-01 -1.990000000000E-01 -3.688000000000E-01
H10  1.894000000000E-01  3.010000000000E-01 -1.312000000000E-01
H11  1.894000000000E-01  1.990000000000E-01  3.688000000000E-01
H12 -1.894000000000E-01 -3.010000000000E-01  1.312000000000E-01
C13 -1.362000000000E-01 -4.706000000000E-01 -2.228000000000E-01
C14  1.362000000000E-01  2.940000000000E-02 -2.772000000000E-01
C15  1.362000000000E-01  4.706000000000E-01  2.228000000000E-01
C16 -1.362000000000E-01 -2.940000000000E-02  2.772000000000E-01
H17 -3.900000000000E-02 -4.200000000000E-01 -1.660000000000E-01
H18  3.900000000000E-02  8.000000000000E-02 -3.340000000000E-01
H19  3.900000000000E-02  4.200000000000E-01  1.660000000000E-01
H20 -3.900000000000E-02 -8.000000000000E-02  3.340000000000E-01
C21 -1.847000000000E-01  3.205000000000E-01 -1.809000000000E-01
C22  1.847000000000E-01 -1.795000000000E-01 -3.191000000000E-01
C23  1.847000000000E-01 -3.205000000000E-01  1.809000000000E-01
C24 -1.847000000000E-01  1.795000000000E-01  3.191000000000E-01
H25 -1.230000000000E-01  2.260000000000E-01 -9.600000000000E-02
H26  1.230000000000E-01 -2.740000000000E-01 -4.040000000000E-01
H27  1.230000000000E-01 -2.260000000000E-01  9.600000000000E-02
H28 -1.230000000000E-01  2.740000000000E-01  4.040000000000E-01
C29 -3.168000000000E-01  2.430000000000E-01 -2.570700000000E-01
C30  3.168000000000E-01 -2.570000000000E-01 -2.429300000000E-01
C31  3.168000000000E-01 -2.430000000000E-01  2.570700000000E-01
C32 -3.168000000000E-01  2.570000000000E-01  2.429300000000E-01
H33 -3.562000000000E-01  8.800000000000E-02 -2.327000000000E-01
H34  3.562000000000E-01 -4.120000000000E-01 -2.673000000000E-01
H35  3.562000000000E-01 -8.800000000000E-02  2.327000000000E-01
H36 -3.562000000000E-01  4.120000000000E-01  2.673000000000E-01
C37 -4.109500000000E-01  3.686000000000E-01 -3.803300000000E-01
C38  4.109500000000E-01 -1.314000000000E-01 -1.196700000000E-01
C39  4.109500000000E-01 -3.686000000000E-01  3.803300000000E-01
C40 -4.109500000000E-01  1.314000000000E-01  1.196700000000E-01
C41 -4.527900000000E-01 -2.931000000000E-01  4.598900000000E-01
C42  4.527900000000E-01  2.069000000000E-01  4.011000000000E-02
C43  4.527900000000E-01  2.931000000000E-01 -4.598900000000E-01
C44 -4.527900000000E-01 -2.069000000000E-01 -4.011000000000E-02
H45 -4.163000000000E-01 -1.410000000000E-01  4.324000000000E-01
H46  4.163000000000E-01  3.590000000000E-01  6.760000000000E-02
H47  4.163000000000E-01  1.410000000000E-01 -4.324000000000E-01
H48 -4.163000000000E-01 -3.590000000000E-01 -6.760000000000E-02


#===END

data_OPT_STEP_2

_symmetry_space_group_name_H-M 'P 1'
_cell_length_a      9.45830000
_cell_length_b      6.01000000
_cell_length_c      8.55760000
_cell_angle_alpha   90.000000
_cell_angle_beta  103.583000
_cell_angle_gamma   90.000000

loop_
_atom_site_label
_atom_site_fract_x
_atom_site_fract_y
_atom_site_fract_z
C1 -3.619500000000E-01 -4.183000000000E-01 -4.209400000000E-01
C2  3.619500000000E-01  8.170000000000E-02 -7.906000000000E-02
C3  3.619500000000E-01  4.183000000000E-01  4.209400000000E-01
C4 -3.619500000000E-01 -8.170000000000E-02  7.906000000000E-02
C5 -2.207000000000E-01 -3.458000000000E-01 -3.383000000000E-01
C6  2.207000000000E-01  1.542000000000E-01 -1.617000000000E-01
C7  2.207000000000E-01  3.458000000000E-01  3.383000000000E-01
C8 -2.207000000000E-01 -1.542000000000E-01  1.617000000000E-01
H9 -1.894000000000E-01 -1.990000000000E-01 -3.688000000000E-01
H10  1.894000000000E-01  3.010000000000E-01 -1.312000000000E-01
H11  1.894000000000E-01  1.990000000000E-01  3.688000000000E-01
H12 -1.894000000000E-01 -3.010000000000E-01  1.312000000000E-01
C13 -1.362000000000E-01 -4.706000000000E-01 -2.228000000000E-01
C14  1.362000000000E-01  2.940000000000E-02 -2.772000000000E-01
C15  1.362000000000E-01  4.706000000000E-01  2.228000000000E-01
C16 -1.362000000000E-01 -2.940000000000E-02  2.772000000000E-01
H17 -3.900000000000E-02 -4.200000000000E-01 -1.660000000000E-01
H18  3.900000000000E-02  8.000000000000E-02 -3.340000000000E-01
H19  3.900000000000E-02  4.200000000000E-01  1.660000000000E-01
H20 -3.900000000000E-02 -8.000000000000E-02  3.340000000000E-01
C21 -1.847000000000E-01  3.205000000000E-01 -1.809000000000E-01
C22  1.847000000000E-01 -1.795000000000E-01 -3.191000000000E-01
C23  1.847000000000E-01 -3.205000000000E-01  1.809000000000E-01
C24 -1.847000000000E-01  1.795000000000E-01  3.191000000000E-01
H25 -1.230000000000E-01  2.260000000000E-01 -9.600000000000E-02
H26  1.230000000000E-01 -2.740000000000E-01 -4.040000000000E-01
H27  1.230000000000E-01 -2.260000000000E-01  9.600000000000E-02
H28 -1.230000000000E-01  2.740000000000E-01  4.040000000000E-01
C29 -3.168000000000E-01  2.430000000000E-01 -2.570700000000E-01
C30  3.168000000000E-01 -2.570000000000E-01 -2.429300000000E-01
C31  3.168000000000E-01 -2.430000000000E-01  2.570700000000E-01
C32 -3.168000000000E-01  2.570000000000E-01  2.429300000000E-01
H33 -3.562000000000E-01  8.800000000000E-02 -2.327000000000E-01
H34  3.562000000000E-01 -4.120000000000E-01 -2.673000000000E-01
H35  3.562000000000E-01 -8.800000000000E-02  2.327000000000E-01
H36 -3.562000000000E-01  4.120000000000E-01  2.673000000000E-01
C37 -4.109500000000E-01  3.686000000000E-01 -3.803300000000E-01
C38  4.109500000000E-01 -1.314000000000E-01 -1.196700000000E-01
C39  4.109500000000E-01 -3.686000000000E-01  3.803300000000E-01
C40 -4.109500000000E-01  1.314000000000E-01  1.196700000000E-01
C41 -4.527900000000E-01 -2.931000000000E-01  4.598900000000E-01
C42  4.527900000000E-01  2.069000000000E-01  4.011000000000E-02
C43  4.527900000000E-01  2.931000000000E-01 -4.598900000000E-01
C44 -4.527900000000E-01 -2.069000000000E-01 -4.011000000000E-02
H45 -4.163000000000E-01 -1.410000000000E-01  4.324000000000E-01
H46  4.163000000000E-01  3.590000000000E-01  6.760000000000E-02
H47  4.163000000000E-01  1.410000000000E-01 -4.324000000000E-01
H48 -4.163000000000E-01 -3.590000000000E-01 -6.760000000000E-02


#===END

data_OPT_STEP_3

_symmetry_space_group_name_H-M 'P 1'
_cell_length_a      9.53844134
_cell_length_b      6.06451363
_cell_length_c      8.63753703
_cell_angle_alpha   90.000000
_cell_angle_beta  103.865864
_cell_angle_gamma   90.000000

loop_
_atom_site_label
_atom_site_fract_x
_atom_site_fract_y
_atom_site_fract_z
C1 -3.625493882904E-01 -4.189218662445E-01 -4.212637593088E-01
C2  3.625493882904E-01  8.107813375553E-02 -7.873624069121E-02
C3  3.625493882904E-01  4.189218662445E-01  4.212637593088E-01
C4 -3.625493882904E-01 -8.107813375553E-02  7.873624069121E-02
C5 -2.223668329881E-01 -3.456876477144E-01 -3.385476436467E-01
C6  2.223668329881E-01  1.543123522856E-01 -1.614523563533E-01
C7  2.223668329881E-01  3.456876477144E-01  3.385476436467E-01
C8 -2.223668329881E-01 -1.543123522856E-01  1.614523563533E-01
H9 -1.902017469823E-01 -1.958004679586E-01 -3.693113120489E-01
H10  1.902017469823E-01  3.041995320414E-01 -1.306886879511E-01
H11  1.902017469823E-01  1.958004679586E-01  3.693113120489E-01
H12 -1.902017469823E-01 -3.041995320414E-01  1.306886879511E-01
C13 -1.372750748537E-01 -4.709814556463E-01 -2.240896545739E-01
C14  1.372750748537E-01  2.901854435372E-02 -2.759103454261E-01
C15  1.372750748537E-01  4.709814556463E-01  2.240896545739E-01
C16 -1.372750748537E-01 -2.901854435372E-02  2.759103454261E-01
H17 -3.794231925506E-02 -4.186951161669E-01 -1.655972473249E-01
H18  3.794231925506E-02  8.130488383306E-02 -3.344027526751E-01
H19  3.794231925506E-02  4.186951161669E-01  1.655972473249E-01
H20 -3.794231925506E-02 -8.130488383306E-02  3.344027526751E-01
C21 -1.853853534148E-01  3.207676480449E-01 -1.831153134702E-01
C22  1.853853534148E-01 -1.792323519551E-01 -3.168846865298E-01
C23  1.853853534148E-01 -3.207676480449E-01  1.831153134702E-01
C24 -1.853853534148E-01  1.792323519551E-01  3.168846865298E-01
H25 -1.221239151379E-01  2.254419473376E-01 -9.616433850505E-02
H26  1.221239151379E-01 -2.745580526624E-01 -4.038356614949E-01
H27  1.221239151379E-01 -2.254419473376E-01  9.616433850505E-02
H28 -1.221239151379E-01  2.745580526624E-01  4.038356614949E-01
C29 -3.169442263215E-01  2.433384229011E-01 -2.598459744123E-01
C30  3.169442263215E-01 -2.566615770989E-01 -2.401540255877E-01
C31  3.169442263215E-01 -2.433384229011E-01  2.598459744123E-01
C32 -3.169442263215E-01  2.566615770989E-01  2.401540255877E-01
H33 -3.566644343918E-01  8.941108406347E-02 -2.325203881742E-01
H34  3.566644343918E-01 -4.105889159365E-01 -2.674796118258E-01
H35  3.566644343918E-01 -8.941108406347E-02  2.325203881742E-01
H36 -3.566644343918E-01  4.105889159365E-01  2.674796118258E-01
C37 -4.108257472182E-01  3.689518308807E-01 -3.816470444896E-01
C38  4.108257472182E-01 -1.310481691193E-01 -1.183529555104E-01
C39  4.108257472182E-01 -3.689518308807E-01  3.816470444896E-01
C40 -4.108257472182E-01  1.310481691193E-01  1.183529555104E-01
C41 -4.534583662038E-01 -2.935600633648E-01  4.610886338622E-01
C42  4.534583662038E-01  2.064399366352E-01  3.891136613779E-02
C43  4.534583662038E-01  2.935600633648E-01 -4.610886338622E-01
C44 -4.534583662038E-01 -2.064399366352E-01 -3.891136613779E-02
H45 -4.168701864864E-01 -1.403935418103E-01  4.325478798276E-01
H46  4.168701864864E-01  3.596064581897E-01  6.745212017241E-02
H47  4.168701864864E-01  1.403935418103E-01 -4.325478798276E-01
H48 -4.168701864864E-01 -3.596064581897E-01 -6.745212017241E-02


#===END

data_OPT_STEP_4

_symmetry_space_group_name_H-M 'P 1'
_cell_length_a      9.59540434
_cell_length_b      6.19564536
_cell_length_c      8.67149969
_cell_angle_alpha   90.000000
_cell_angle_beta  104.045320
_cell_angle_gamma   90.000000

loop_
_atom_site_label
_atom_site_fract_x
_atom_site_fract_y
_atom_site_fract_z
C1 -3.619973114532E-01 -4.228469319750E-01 -4.229367231325E-01
C2  3.619973114532E-01  7.715306802501E-02 -7.706327686745E-02
C3  3.619973114532E-01  4.228469319750E-01  4.229367231325E-01
C4 -3.619973114532E-01 -7.715306802501E-02  7.706327686745E-02
C5 -2.216078889058E-01 -3.527385904124E-01 -3.417900620939E-01
C6  2.216078889058E-01  1.472614095876E-01 -1.582099379061E-01
C7  2.216078889058E-01  3.527385904124E-01  3.417900620939E-01
C8 -2.216078889058E-01 -1.472614095876E-01  1.582099379061E-01
H9 -1.895697136973E-01 -2.026652148259E-01 -3.712137116730E-01
H10  1.895697136973E-01  2.973347851741E-01 -1.287862883270E-01
H11  1.895697136973E-01  2.026652148259E-01  3.712137116730E-01
H12 -1.895697136973E-01 -2.973347851741E-01  1.287862883270E-01
C13 -1.373989289741E-01 -4.751098594045E-01 -2.263517397253E-01
C14  1.373989289741E-01  2.489014059548E-02 -2.736482602747E-01
C15  1.373989289741E-01  4.751098594045E-01  2.263517397253E-01
C16 -1.373989289741E-01 -2.489014059548E-02  2.736482602747E-01
H17 -3.667434142728E-02 -4.238459737319E-01 -1.676467595431E-01
H18  3.667434142728E-02  7.615402626805E-02 -3.323532404569E-01
H19  3.667434142728E-02  4.238459737319E-01  1.676467595431E-01
H20 -3.667434142728E-02 -7.615402626805E-02  3.323532404569E-01
C21 -1.875795572173E-01  3.242556314127E-01 -1.822361170002E-01
C22  1.875795572173E-01 -1.757443685873E-01 -3.177638829998E-01
C23  1.875795572173E-01 -3.242556314127E-01  1.822361170002E-01
C24 -1.875795572173E-01  1.757443685873E-01  3.177638829998E-01
H25 -1.241430847979E-01  2.310622883820E-01 -9.304918594540E-02
H26  1.241430847979E-01 -2.689377116180E-01 -4.069508140546E-01
H27  1.241430847979E-01 -2.310622883820E-01  9.304918594540E-02
H28 -1.241430847979E-01  2.689377116180E-01  4.069508140546E-01
C29 -3.205930787637E-01  2.516760149931E-01 -2.558797086770E-01
C30  3.205930787637E-01 -2.483239850069E-01 -2.441202913230E-01
C31  3.205930787637E-01 -2.516760149931E-01  2.558797086770E-01
C32 -3.205930787637E-01  2.483239850069E-01  2.441202913230E-01
H33 -3.602863265097E-01  1.008792838049E-01 -2.267716633843E-01
H34  3.602863265097E-01 -3.991207161951E-01 -2.732283366157E-01
H35  3.602863265097E-01 -1.008792838049E-01  2.267716633843E-01
H36 -3.602863265097E-01  3.991207161951E-01  2.732283366157E-01
C37 -4.124574812613E-01  3.731133874258E-01 -3.797024375055E-01
C38  4.124574812613E-01 -1.268866125742E-01 -1.202975624945E-01
C39  4.124574812613E-01 -3.731133874258E-01  3.797024375055E-01
C40 -4.124574812613E-01  1.268866125742E-01  1.202975624945E-01
C41 -4.512135056354E-01 -3.013578534692E-01  4.575534157184E-01
C42  4.512135056354E-01  1.986421465308E-01  4.244658428163E-02
C43  4.512135056354E-01  3.013578534692E-01 -4.575534157184E-01
C44 -4.512135056354E-01 -1.986421465308E-01 -4.244658428163E-02
H45 -4.139271589614E-01 -1.511772033652E-01  4.273289213478E-01
H46  4.139271589614E-01  3.488227966348E-01  7.267107865224E-02
H47  4.139271589614E-01  1.511772033652E-01 -4.273289213478E-01
H48 -4.139271589614E-01 -3.488227966348E-01 -7.267107865224E-02


#===END

data_OPT_STEP_5

_symmetry_space_group_name_H-M 'P 1'
_cell_length_a      9.67998945
_cell_length_b      6.06033624
_cell_length_c      8.83023152
_cell_angle_alpha   90.000000
_cell_angle_beta  104.407741
_cell_angle_gamma   90.000000

loop_
_atom_site_label
_atom_site_fract_x
_atom_site_fract_y
_atom_site_fract_z
C1 -3.662244746297E-01 -4.144606063804E-01 -4.175364705792E-01
C2  3.662244746297E-01  8.553939361964E-02 -8.246352942081E-02
C3  3.662244746297E-01  4.144606063804E-01  4.175364705792E-01
C4 -3.662244746297E-01 -8.553939361964E-02  8.246352942081E-02
C5 -2.276795981801E-01 -3.397372675800E-01 -3.364909312081E-01
C6  2.276795981801E-01  1.602627324200E-01 -1.635090687919E-01
C7  2.276795981801E-01  3.397372675800E-01  3.364909312081E-01
C8 -2.276795981801E-01 -1.602627324200E-01  1.635090687919E-01
H9 -1.922403307470E-01 -1.842983517716E-01 -3.689217743385E-01
H10  1.922403307470E-01  3.157016482284E-01 -1.310782256615E-01
H11  1.922403307470E-01  1.842983517716E-01  3.689217743385E-01
H12 -1.922403307470E-01 -3.157016482284E-01  1.310782256615E-01
C13 -1.421139604341E-01 -4.659073684598E-01 -2.234699113409E-01
C14  1.421139604341E-01  3.409263154019E-02 -2.765300886591E-01
C15  1.421139604341E-01  4.659073684598E-01  2.234699113409E-01
C16 -1.421139604341E-01 -3.409263154019E-02  2.765300886591E-01
H17 -3.961697755467E-02 -4.077771248033E-01 -1.623900195117E-01
H18  3.961697755467E-02  9.222287519672E-02 -3.376099804883E-01
H19  3.961697755467E-02  4.077771248033E-01  1.623900195117E-01
H20 -3.961697755467E-02 -9.222287519672E-02  3.376099804883E-01
C21 -1.847320057817E-01  3.168797222064E-01 -1.924896797351E-01
C22  1.847320057817E-01 -1.831202777936E-01 -3.075103202649E-01
C23  1.847320057817E-01 -3.168797222064E-01  1.924896797351E-01
C24 -1.847320057817E-01  1.831202777936E-01  3.075103202649E-01
H25 -1.164997275962E-01  2.178477347036E-01 -1.046460541322E-01
H26  1.164997275962E-01 -2.821522652964E-01 -3.953539458678E-01
H27  1.164997275962E-01 -2.178477347036E-01  1.046460541322E-01
H28 -1.164997275962E-01  2.821522652964E-01  3.953539458678E-01
C29 -3.138833131305E-01  2.357604432293E-01 -2.716131626056E-01
C30  3.138833131305E-01 -2.642395567707E-01 -2.283868373944E-01
C31  3.138833131305E-01 -2.357604432293E-01  2.716131626056E-01
C32 -3.138833131305E-01  2.642395567707E-01  2.283868373944E-01
H33 -3.507706056132E-01  7.797394303273E-02 -2.407767209918E-01
H34  3.507706056132E-01 -4.220260569673E-01 -2.592232790082E-01
H35  3.507706056132E-01 -7.797394303273E-02  2.407767209918E-01
H36 -3.507706056132E-01  4.220260569673E-01  2.592232790082E-01
C37 -4.087957522987E-01  3.651707732930E-01 -3.873823952277E-01
C38  4.087957522987E-01 -1.348292267070E-01 -1.126176047723E-01
C39  4.087957522987E-01 -3.651707732930E-01  3.873823952277E-01
C40 -4.087957522987E-01  1.348292267070E-01  1.126176047723E-01
C41 -4.575443314639E-01 -2.869551399745E-01  4.683521579764E-01
C42  4.575443314639E-01  2.130448600255E-01  3.164784202358E-02
C43  4.575443314639E-01  2.869551399745E-01 -4.683521579764E-01
C44 -4.575443314639E-01 -2.130448600255E-01 -3.164784202358E-02
H45 -4.210834396908E-01 -1.297480952466E-01  4.365709179768E-01
H46  4.210834396908E-01  3.702519047534E-01  6.342908202317E-02
H47  4.210834396908E-01  1.297480952466E-01 -4.365709179768E-01
H48 -4.210834396908E-01 -3.702519047534E-01 -6.342908202317E-02


#===END

data_OPT_STEP_6

_symmetry_space_group_name_H-M 'P 1'
_cell_length_a      9.62812311
_cell_length_b      6.35835074
_cell_length_c      8.67139359
_cell_angle_alpha   90.000000
_cell_angle_beta  102.983054
_cell_angle_gamma   90.000000

loop_
_atom_site_label
_atom_site_fract_x
_atom_site_fract_y
_atom_site_fract_z
C1 -3.624783693748E-01 -4.264909557807E-01 -4.257271349803E-01
C2  3.624783693748E-01  7.350904421931E-02 -7.427286501972E-02
C3  3.624783693748E-01  4.264909557807E-01  4.257271349803E-01
C4 -3.624783693748E-01 -7.350904421931E-02  7.427286501972E-02
C5 -2.282581932569E-01 -3.496886223490E-01 -3.378449887614E-01
C6  2.282581932569E-01  1.503113776510E-01 -1.621550112386E-01
C7  2.282581932569E-01  3.496886223490E-01  3.378449887614E-01
C8 -2.282581932569E-01 -1.503113776510E-01  1.621550112386E-01
H9 -1.928022316681E-01 -1.945561509357E-01 -3.666438376239E-01
H10  1.928022316681E-01  3.054438490643E-01 -1.333561623761E-01
H11  1.928022316681E-01  1.945561509357E-01  3.666438376239E-01
H12 -1.928022316681E-01 -3.054438490643E-01  1.333561623761E-01
C13 -1.413492143798E-01 -4.751443357108E-01 -2.289389202257E-01
C14  1.413492143798E-01  2.485566428919E-02 -2.710610797743E-01
C15  1.413492143798E-01  4.751443357108E-01  2.289389202257E-01
C16 -1.413492143798E-01 -2.485566428919E-02  2.710610797743E-01
H17 -3.570819146841E-02 -4.193334435821E-01 -1.699567600315E-01
H18  3.570819146841E-02  8.066655641787E-02 -3.300432399685E-01
H19  3.570819146841E-02  4.193334435821E-01  1.699567600315E-01
H20 -3.570819146841E-02 -8.066655641787E-02  3.300432399685E-01
C21 -1.901026767562E-01  3.260178027464E-01 -1.880815443267E-01
C22  1.901026767562E-01 -1.739821972536E-01 -3.119184556733E-01
C23  1.901026767562E-01 -3.260178027464E-01  1.880815443267E-01
C24 -1.901026767562E-01  1.739821972536E-01  3.119184556733E-01
H25 -1.224222053203E-01  2.320857778199E-01 -9.565134453607E-02
H26  1.224222053203E-01 -2.679142221801E-01 -4.043486554639E-01
H27  1.224222053203E-01 -2.320857778199E-01  9.565134453607E-02
H28 -1.224222053203E-01  2.679142221801E-01  4.043486554639E-01
C29 -3.171232036701E-01  2.461847778513E-01 -2.707812458775E-01
C30  3.171232036701E-01 -2.538152221487E-01 -2.292187541225E-01
C31  3.171232036701E-01 -2.461847778513E-01  2.707812458775E-01
C32 -3.171232036701E-01  2.538152221487E-01  2.292187541225E-01
H33 -3.529165878988E-01  9.318897173595E-02 -2.394374754854E-01
H34  3.529165878988E-01 -4.068110282641E-01 -2.605625245146E-01
H35  3.529165878988E-01 -9.318897173595E-02  2.394374754854E-01
H36 -3.529165878988E-01  4.068110282641E-01  2.605625245146E-01
C37 -4.114710847546E-01  3.723688805572E-01 -3.846056453449E-01
C38  4.114710847546E-01 -1.276311194428E-01 -1.153943546551E-01
C39  4.114710847546E-01 -3.723688805572E-01  3.846056453449E-01
C40 -4.114710847546E-01  1.276311194428E-01  1.153943546551E-01
C41 -4.541411511495E-01 -3.004472311139E-01  4.636837195098E-01
C42  4.541411511495E-01  1.995527688861E-01  3.631628049016E-02
C43  4.541411511495E-01  3.004472311139E-01 -4.636837195098E-01
C44 -4.541411511495E-01 -1.995527688861E-01 -3.631628049016E-02
H45 -4.184968216618E-01 -1.458429142682E-01  4.338403023785E-01
H46  4.184968216618E-01  3.541570857318E-01  6.615969762154E-02
H47  4.184968216618E-01  1.458429142682E-01 -4.338403023785E-01
H48 -4.184968216618E-01 -3.541570857318E-01 -6.615969762154E-02


#===END

data_OPT_STEP_7

_symmetry_space_group_name_H-M 'P 1'
_cell_length_a      9.65279175
_cell_length_b      6.12548096
_cell_length_c      8.80395034
_cell_angle_alpha   90.000000
_cell_angle_beta  103.931032
_cell_angle_gamma   90.000000

loop_
_atom_site_label
_atom_site_fract_x
_atom_site_fract_y
_atom_site_fract_z
C1 -3.680399727680E-01 -4.122384127678E-01 -4.148453153433E-01
C2  3.680399727680E-01  8.776158723224E-02 -8.515468465673E-02
C3  3.680399727680E-01  4.122384127678E-01  4.148453153433E-01
C4 -3.680399727680E-01 -8.776158723224E-02  8.515468465673E-02
C5 -2.254206812961E-01 -3.458759160179E-01 -3.426955832695E-01
C6  2.254206812961E-01  1.541240839821E-01 -1.573044167305E-01
C7  2.254206812961E-01  3.458759160179E-01  3.426955832695E-01
C8 -2.254206812961E-01 -1.541240839821E-01  1.573044167305E-01
H9 -1.899515875376E-01 -1.903287468062E-01 -3.742763531961E-01
H10  1.899515875376E-01  3.096712531938E-01 -1.257236468039E-01
H11  1.899515875376E-01  1.903287468062E-01  3.742763531961E-01
H12 -1.899515875376E-01 -3.096712531938E-01  1.257236468039E-01
C13 -1.425041491400E-01 -4.661295279644E-01 -2.251262668329E-01
C14  1.425041491400E-01  3.387047203564E-02 -2.748737331671E-01
C15  1.425041491400E-01  4.661295279644E-01  2.251262668329E-01
C16 -1.425041491400E-01 -3.387047203564E-02  2.748737331671E-01
H17 -3.918749988644E-02 -4.083091661329E-01 -1.640477565670E-01
H18  3.918749988644E-02  9.169083386714E-02 -3.359522434330E-01
H19  3.918749988644E-02  4.083091661329E-01  1.640477565670E-01
H20 -3.918749988644E-02 -9.169083386714E-02  3.359522434330E-01
C21 -1.872742900510E-01  3.225687037361E-01 -1.899104021356E-01
C22  1.872742900510E-01 -1.774312962639E-01 -3.100895978644E-01
C23  1.872742900510E-01 -3.225687037361E-01  1.899104021356E-01
C24 -1.872742900510E-01  1.774312962639E-01  3.100895978644E-01
H25 -1.170028609251E-01  2.225684774347E-01 -1.042579527840E-01
H26  1.170028609251E-01 -2.774315225653E-01 -3.957420472160E-01
H27  1.170028609251E-01 -2.225684774347E-01  1.042579527840E-01
H28 -1.170028609251E-01  2.774315225653E-01  3.957420472160E-01
C29 -3.255076656420E-01  2.574876429727E-01 -2.512257336543E-01
C30  3.255076656420E-01 -2.425123570273E-01 -2.487742663457E-01
C31  3.255076656420E-01 -2.574876429727E-01  2.512257336543E-01
C32 -3.255076656420E-01  2.425123570273E-01  2.487742663457E-01
H33 -3.647123338584E-01  1.048244575322E-01 -2.161252960416E-01
H34  3.647123338584E-01 -3.951755424678E-01 -2.838747039584E-01
H35  3.647123338584E-01 -1.048244575322E-01  2.161252960416E-01
H36 -3.647123338584E-01  3.951755424678E-01  2.838747039584E-01
C37 -4.126495581017E-01  3.728625009318E-01 -3.806588758269E-01
C38  4.126495581017E-01 -1.271374990682E-01 -1.193411241731E-01
C39  4.126495581017E-01 -3.728625009318E-01  3.806588758269E-01
C40 -4.126495581017E-01  1.271374990682E-01  1.193411241731E-01
C41 -4.551737058098E-01 -2.932136532565E-01  4.638516162183E-01
C42  4.551737058098E-01  2.067863467435E-01  3.614838378168E-02
C43  4.551737058098E-01  2.932136532565E-01 -4.638516162183E-01
C44 -4.551737058098E-01 -2.067863467435E-01 -3.614838378168E-02
H45 -4.209883480227E-01 -1.335140649973E-01  4.366202948445E-01
H46  4.209883480227E-01  3.664859350027E-01  6.337970515549E-02
H47  4.209883480227E-01  1.335140649973E-01 -4.366202948445E-01
H48 -4.209883480227E-01 -3.664859350027E-01 -6.337970515549E-02


#===END

data_OPT_STEP_8

_symmetry_space_group_name_H-M 'P 1'
_cell_length_a      9.61732927
_cell_length_b      6.31462056
_cell_length_c      8.67227913
_cell_angle_alpha   90.000000
_cell_angle_beta  103.016175
_cell_angle_gamma   90.000000

loop_
_atom_site_label
_atom_site_fract_x
_atom_site_fract_y
_atom_site_fract_z
C1 -3.643619981283E-01 -4.220294845555E-01 -4.220926364812E-01
C2  3.643619981283E-01  7.797051544447E-02 -7.790736351877E-02
C3  3.643619981283E-01  4.220294845555E-01  4.220926364812E-01
C4 -3.643619981283E-01 -7.797051544447E-02  7.790736351877E-02
C5 -2.272117386186E-01 -3.492236932020E-01 -3.397747341583E-01
C6  2.272117386186E-01  1.507763067980E-01 -1.602252658417E-01
C7  2.272117386186E-01  3.492236932020E-01  3.397747341583E-01
C8 -2.272117386186E-01 -1.507763067980E-01  1.602252658417E-01
H9 -1.919367643179E-01 -1.942979048090E-01 -3.692695553992E-01
H10  1.919367643179E-01  3.057020951910E-01 -1.307304446008E-01
H11  1.919367643179E-01  1.942979048090E-01  3.692695553992E-01
H12 -1.919367643179E-01 -3.057020951910E-01  1.307304446008E-01
C13 -1.415968391466E-01 -4.725438226625E-01 -2.280243840649E-01
C14  1.415968391466E-01  2.745617733747E-02 -2.719756159351E-01
C15  1.415968391466E-01  4.725438226625E-01  2.280243840649E-01
C16 -1.415968391466E-01 -2.745617733747E-02  2.719756159351E-01
H17 -3.668728549335E-02 -4.164764565910E-01 -1.684209471271E-01
H18  3.668728549335E-02  8.352354340905E-02 -3.315790528729E-01
H19  3.668728549335E-02  4.164764565910E-01  1.684209471271E-01
H20 -3.668728549335E-02 -8.352354340905E-02  3.315790528729E-01
C21 -1.888649375711E-01  3.250734536628E-01 -1.892653585235E-01
C22  1.888649375711E-01 -1.749265463372E-01 -3.107346414765E-01
C23  1.888649375711E-01 -3.250734536628E-01  1.892653585235E-01
C24 -1.888649375711E-01  1.749265463372E-01  3.107346414765E-01
H25 -1.205349133840E-01  2.298697156529E-01 -9.866525991272E-02
H26  1.205349133840E-01 -2.701302843471E-01 -4.013347400873E-01
H27  1.205349133840E-01 -2.298697156529E-01  9.866525991272E-02
H28 -1.205349133840E-01  2.701302843471E-01  4.013347400873E-01
C29 -3.192739793139E-01  2.499547128034E-01 -2.654146112945E-01
C30  3.192739793139E-01 -2.500452871966E-01 -2.345853887055E-01
C31  3.192739793139E-01 -2.499547128034E-01  2.654146112945E-01
C32 -3.192739793139E-01  2.500452871966E-01  2.345853887055E-01
H33 -3.556976172621E-01  9.696196891967E-02 -2.337134927759E-01
H34  3.556976172621E-01 -4.030380310803E-01 -2.662865072241E-01
H35  3.556976172621E-01 -9.696196891967E-02  2.337134927759E-01
H36 -3.556976172621E-01  4.030380310803E-01  2.662865072241E-01
C37 -4.114432203730E-01  3.724052102592E-01 -3.840506302291E-01
C38  4.114432203730E-01 -1.275947897408E-01 -1.159493697709E-01
C39  4.114432203730E-01 -3.724052102592E-01  3.840506302291E-01
C40 -4.114432203730E-01  1.275947897408E-01  1.159493697709E-01
C41 -4.547793142609E-01 -2.984532375458E-01  4.641864911941E-01
C42  4.547793142609E-01  2.015467624542E-01  3.581350880587E-02
C43  4.547793142609E-01  2.984532375458E-01 -4.641864911941E-01
C44 -4.547793142609E-01 -2.015467624542E-01 -3.581350880587E-02
H45 -4.196716328072E-01 -1.427468427473E-01  4.352284685270E-01
H46  4.196716328072E-01  3.572531572527E-01  6.477153147296E-02
H47  4.196716328072E-01  1.427468427473E-01 -4.352284685270E-01
H48 -4.196716328072E-01 -3.572531572527E-01 -6.477153147296E-02


#===END

data_OPT_STEP_9

_symmetry_space_group_name_H-M 'P 1'
_cell_length_a      9.64772449
_cell_length_b      6.30647383
_cell_length_c      8.71083552
_cell_angle_alpha   90.000000
_cell_angle_beta  103.373470
_cell_angle_gamma   90.000000

loop_
_atom_site_label
_atom_site_fract_x
_atom_site_fract_y
_atom_site_fract_z
C1 -3.647294201753E-01 -4.210833578014E-01 -4.215696941045E-01
C2  3.647294201753E-01  7.891664219856E-02 -7.843030589546E-02
C3  3.647294201753E-01  4.210833578014E-01  4.215696941045E-01
C4 -3.647294201753E-01 -7.891664219856E-02  7.843030589546E-02
C5 -2.268020535977E-01 -3.494071563484E-01 -3.409099697401E-01
C6  2.268020535977E-01  1.505928436516E-01 -1.590900302599E-01
C7  2.268020535977E-01  3.494071563484E-01  3.409099697401E-01
C8 -2.268020535977E-01 -1.505928436516E-01  1.590900302599E-01
H9 -1.918920104436E-01 -1.943529026640E-01 -3.702257361608E-01
H10  1.918920104436E-01  3.056470973360E-01 -1.297742638392E-01
H11  1.918920104436E-01  1.943529026640E-01  3.702257361608E-01
H12 -1.918920104436E-01 -3.056470973360E-01  1.297742638392E-01
C13 -1.413292443750E-01 -4.720390530735E-01 -2.285764420395E-01
C14  1.413292443750E-01  2.796094692649E-02 -2.714235579605E-01
C15  1.413292443750E-01  4.720390530735E-01  2.285764420395E-01
C16 -1.413292443750E-01 -2.796094692649E-02  2.714235579605E-01
H17 -3.687708033710E-02 -4.155514077420E-01 -1.682913072221E-01
H18  3.687708033710E-02  8.444859225801E-02 -3.317086927779E-01
H19  3.687708033710E-02  4.155514077420E-01  1.682913072221E-01
H20 -3.687708033710E-02 -8.444859225801E-02  3.317086927779E-01
C21 -1.878337126175E-01  3.245884550179E-01 -1.906193205909E-01
C22  1.878337126175E-01 -1.754115449821E-01 -3.093806794091E-01
C23  1.878337126175E-01 -3.245884550179E-01  1.906193205909E-01
C24 -1.878337126175E-01  1.754115449821E-01  3.093806794091E-01
H25 -1.193796449055E-01  2.293071829752E-01 -1.003536236741E-01
H26  1.193796449055E-01 -2.706928170248E-01 -3.996463763259E-01
H27  1.193796449055E-01 -2.293071829752E-01  1.003536236741E-01
H28 -1.193796449055E-01  2.706928170248E-01  3.996463763259E-01
C29 -3.175591763685E-01  2.480410322345E-01 -2.678515649151E-01
C30  3.175591763685E-01 -2.519589677655E-01 -2.321484350849E-01
C31  3.175591763685E-01 -2.480410322345E-01  2.678515649151E-01
C32 -3.175591763685E-01  2.519589677655E-01  2.321484350849E-01
H33 -3.513023032801E-01  9.095867031055E-02 -2.412921283898E-01
H34  3.513023032801E-01 -4.090413296895E-01 -2.587078716102E-01
H35  3.513023032801E-01 -9.095867031055E-02  2.412921283898E-01
H36 -3.513023032801E-01  4.090413296895E-01  2.587078716102E-01
C37 -4.112304165031E-01  3.725354735974E-01 -3.840852687410E-01
C38  4.112304165031E-01 -1.274645264026E-01 -1.159147312590E-01
C39  4.112304165031E-01 -3.725354735974E-01  3.840852687410E-01
C40 -4.112304165031E-01  1.274645264026E-01  1.159147312590E-01
C41 -4.536911321083E-01 -3.006469310900E-01  4.614449340190E-01
C42  4.536911321083E-01  1.993530689100E-01  3.855506598103E-02
C43  4.536911321083E-01  3.006469310900E-01 -4.614449340190E-01
C44 -4.536911321083E-01 -1.993530689100E-01 -3.855506598103E-02
H45 -4.176346309085E-01 -1.469419363337E-01  4.304123339715E-01
H46  4.176346309085E-01  3.530580636663E-01  6.958766602849E-02
H47  4.176346309085E-01  1.469419363337E-01 -4.304123339715E-01
H48 -4.176346309085E-01 -3.530580636663E-01 -6.958766602849E-02


#===END

data_OPT_STEP_10

_symmetry_space_group_name_H-M 'P 1'
_cell_length_a      9.62033375
_cell_length_b      6.31597913
_cell_length_c      8.67872108
_cell_angle_alpha   90.000000
_cell_angle_beta  103.062339
_cell_angle_gamma   90.000000

loop_
_atom_site_label
_atom_site_fract_x
_atom_site_fract_y
_atom_site_fract_z
C1 -3.646052270725E-01 -4.215488856941E-01 -4.216470514803E-01
C2  3.646052270725E-01  7.845111430594E-02 -7.835294851972E-02
C3  3.646052270725E-01  4.215488856941E-01  4.216470514803E-01
C4 -3.646052270725E-01 -7.845111430594E-02  7.835294851972E-02
C5 -2.271439041573E-01 -3.492355996064E-01 -3.399444966006E-01
C6  2.271439041573E-01  1.507644003936E-01 -1.600555033994E-01
C7  2.271439041573E-01  3.492355996064E-01  3.399444966006E-01
C8 -2.271439041573E-01 -1.507644003936E-01  1.600555033994E-01
H9 -1.919921047056E-01 -1.942821256528E-01 -3.693166906722E-01
H10  1.919921047056E-01  3.057178743472E-01 -1.306833093278E-01
H11  1.919921047056E-01  1.942821256528E-01  3.693166906722E-01
H12 -1.919921047056E-01 -3.057178743472E-01  1.306833093278E-01
C13 -1.415397615344E-01 -4.723896066873E-01 -2.281382277699E-01
C14  1.415397615344E-01  2.761039331272E-02 -2.718617722301E-01
C15  1.415397615344E-01  4.723896066873E-01  2.281382277699E-01
C16 -1.415397615344E-01 -2.761039331272E-02  2.718617722301E-01
H17 -3.671888362113E-02 -4.162568440141E-01 -1.684258123276E-01
H18  3.671888362113E-02  8.374315598589E-02 -3.315741876724E-01
H19  3.671888362113E-02  4.162568440141E-01  1.684258123276E-01
H20 -3.671888362113E-02 -8.374315598589E-02  3.315741876724E-01
C21 -1.886924694524E-01  3.251211038139E-01 -1.894877830526E-01
C22  1.886924694524E-01 -1.748788961861E-01 -3.105122169474E-01
C23  1.886924694524E-01 -3.251211038139E-01  1.894877830526E-01
C24 -1.886924694524E-01  1.748788961861E-01  3.105122169474E-01
H25 -1.203445751314E-01  2.299235238233E-01 -9.900926144447E-02
H26  1.203445751314E-01 -2.700764761767E-01 -4.009907385555E-01
H27  1.203445751314E-01 -2.299235238233E-01  9.900926144447E-02
H28 -1.203445751314E-01  2.700764761767E-01  4.009907385555E-01
C29 -3.189141590654E-01  2.495824935783E-01 -2.659754079475E-01
C30  3.189141590654E-01 -2.504175064217E-01 -2.340245920525E-01
C31  3.189141590654E-01 -2.495824935783E-01  2.659754079475E-01
C32 -3.189141590654E-01  2.504175064217E-01  2.340245920525E-01
H33 -3.546145395508E-01  9.549339098944E-02 -2.357871230827E-01
H34  3.546145395508E-01 -4.045066090106E-01 -2.642128769173E-01
H35  3.546145395508E-01 -9.549339098944E-02  2.357871230827E-01
H36 -3.546145395508E-01  4.045066090106E-01  2.642128769173E-01
C37 -4.114723176632E-01  3.725676093213E-01 -3.839531714271E-01
C38  4.114723176632E-01 -1.274323906787E-01 -1.160468285729E-01
C39  4.114723176632E-01 -3.725676093213E-01  3.839531714271E-01
C40 -4.114723176632E-01  1.274323906787E-01  1.160468285729E-01
C41 -4.543956407261E-01 -2.992191687284E-01  4.633566915039E-01
C42  4.543956407261E-01  2.007808312716E-01  3.664330849607E-02
C43  4.543956407261E-01  2.992191687284E-01 -4.633566915039E-01
C44 -4.543956407261E-01 -2.007808312716E-01 -3.664330849607E-02
H45 -4.190478782305E-01 -1.440617516665E-01  4.339735555687E-01
H46  4.190478782305E-01  3.559382483335E-01  6.602644443128E-02
H47  4.190478782305E-01  1.440617516665E-01 -4.339735555687E-01
H48 -4.190478782305E-01 -3.559382483335E-01 -6.602644443128E-02


#===END

data_OPT_STEP_11

_symmetry_space_group_name_H-M 'P 1'
_cell_length_a      9.62872903
_cell_length_b      6.31730904
_cell_length_c      8.69507648
_cell_angle_alpha   90.000000
_cell_angle_beta  103.162658
_cell_angle_gamma   90.000000

loop_
_atom_site_label
_atom_site_fract_x
_atom_site_fract_y
_atom_site_fract_z
C1 -3.644053920326E-01 -4.217024026719E-01 -4.221938930148E-01
C2  3.644053920326E-01  7.829759732809E-02 -7.780610698516E-02
C3  3.644053920326E-01  4.217024026719E-01  4.221938930148E-01
C4 -3.644053920326E-01 -7.829759732809E-02  7.780610698516E-02
C5 -2.269154138096E-01 -3.492912022980E-01 -3.406981622686E-01
C6  2.269154138096E-01  1.507087977020E-01 -1.593018377314E-01
C7  2.269154138096E-01  3.492912022980E-01  3.406981622686E-01
C8 -2.269154138096E-01 -1.507087977020E-01  1.593018377314E-01
H9 -1.920029049006E-01 -1.941840099176E-01 -3.698621330135E-01
H10  1.920029049006E-01  3.058159900824E-01 -1.301378669865E-01
H11  1.920029049006E-01  1.941840099176E-01  3.698621330135E-01
H12 -1.920029049006E-01 -3.058159900824E-01  1.301378669865E-01
C13 -1.415245432569E-01 -4.717252717476E-01 -2.283874929675E-01
C14  1.415245432569E-01  2.827472825239E-02 -2.716125070325E-01
C15  1.415245432569E-01  4.717252717476E-01  2.283874929675E-01
C16 -1.415245432569E-01 -2.827472825239E-02  2.716125070325E-01
H17 -3.691224339145E-02 -4.152696083338E-01 -1.683242833383E-01
H18  3.691224339145E-02  8.473039166618E-02 -3.316757166617E-01
H19  3.691224339145E-02  4.152696083338E-01  1.683242833383E-01
H20 -3.691224339145E-02 -8.473039166618E-02  3.316757166617E-01
C21 -1.881736207660E-01  3.251710404118E-01 -1.903079745928E-01
C22  1.881736207660E-01 -1.748289595882E-01 -3.096920254072E-01
C23  1.881736207660E-01 -3.251710404118E-01  1.903079745928E-01
C24 -1.881736207660E-01  1.748289595882E-01  3.096920254072E-01
H25 -1.195240305529E-01  2.297591152488E-01 -1.003587340157E-01
H26  1.195240305529E-01 -2.702408847512E-01 -3.996412659843E-01
H27  1.195240305529E-01 -2.297591152488E-01  1.003587340157E-01
H28 -1.195240305529E-01  2.702408847512E-01  3.996412659843E-01
C29 -3.185840599631E-01  2.496723788032E-01 -2.662943384679E-01
C30  3.185840599631E-01 -2.503276211968E-01 -2.337056615321E-01
C31  3.185840599631E-01 -2.496723788032E-01  2.662943384679E-01
C32 -3.185840599631E-01  2.503276211968E-01  2.337056615321E-01
H33 -3.538585513532E-01  9.499425166270E-02 -2.370453225002E-01
H34  3.538585513532E-01 -4.050057483373E-01 -2.629546774998E-01
H35  3.538585513532E-01 -9.499425166270E-02  2.370453225002E-01
H36 -3.538585513532E-01  4.050057483373E-01  2.629546774998E-01
C37 -4.112339348501E-01  3.724852419482E-01 -3.842512243361E-01
C38  4.112339348501E-01 -1.275147580518E-01 -1.157487756639E-01
C39  4.112339348501E-01 -3.724852419482E-01  3.842512243361E-01
C40 -4.112339348501E-01  1.275147580518E-01  1.157487756639E-01
C41 -4.544584440071E-01 -2.993878309083E-01  4.630970262087E-01
C42  4.544584440071E-01  2.006121690917E-01  3.690297379128E-02
C43  4.544584440071E-01  2.993878309083E-01 -4.630970262087E-01
C44 -4.544584440071E-01 -2.006121690917E-01 -3.690297379128E-02
H45 -4.193538819362E-01 -1.441100363545E-01  4.341245339507E-01
H46  4.193538819362E-01  3.558899636455E-01  6.587546604927E-02
H47  4.193538819362E-01  1.441100363545E-01 -4.341245339507E-01
H48 -4.193538819362E-01 -3.558899636455E-01 -6.587546604927E-02


#===END

data_OPT_STEP_12

_symmetry_space_group_name_H-M 'P 1'
_cell_length_a      9.65602523
_cell_length_b      6.33270925
_cell_length_c      8.73900145
_cell_angle_alpha   90.000000
_cell_angle_beta  103.483997
_cell_angle_gamma   90.000000

loop_
_atom_site_label
_atom_site_fract_x
_atom_site_fract_y
_atom_site_fract_z
C1 -3.645757031947E-01 -4.214547540037E-01 -4.221440734180E-01
C2  3.645757031947E-01  7.854524599631E-02 -7.785592658196E-02
C3  3.645757031947E-01  4.214547540037E-01  4.221440734180E-01
C4 -3.645757031947E-01 -7.854524599631E-02  7.785592658196E-02
C5 -2.268783928207E-01 -3.495154036576E-01 -3.413130397929E-01
C6  2.268783928207E-01  1.504845963424E-01 -1.586869602071E-01
C7  2.268783928207E-01  3.495154036576E-01  3.413130397929E-01
C8 -2.268783928207E-01 -1.504845963424E-01  1.586869602071E-01
H9 -1.924322864519E-01 -1.944685621425E-01 -3.699938370900E-01
H10  1.924322864519E-01  3.055314378575E-01 -1.300061629100E-01
H11  1.924322864519E-01  1.944685621425E-01  3.699938370900E-01
H12 -1.924322864519E-01 -3.055314378575E-01  1.300061629100E-01
C13 -1.410703633356E-01 -4.717603282316E-01 -2.295652429488E-01
C14  1.410703633356E-01  2.823967176835E-02 -2.704347570512E-01
C15  1.410703633356E-01  4.717603282316E-01  2.295652429488E-01
C16 -1.410703633356E-01 -2.823967176835E-02  2.704347570512E-01
H17 -3.683306312739E-02 -4.148804717819E-01 -1.689175252442E-01
H18  3.683306312739E-02  8.511952821807E-02 -3.310824747558E-01
H19  3.683306312739E-02  4.148804717819E-01  1.689175252442E-01
H20 -3.683306312739E-02 -8.511952821807E-02  3.310824747558E-01
C21 -1.875789645702E-01  3.259960923866E-01 -1.911455767893E-01
C22  1.875789645702E-01 -1.740039076134E-01 -3.088544232107E-01
C23  1.875789645702E-01 -3.259960923866E-01  1.911455767893E-01
C24 -1.875789645702E-01  1.740039076134E-01  3.088544232107E-01
H25 -1.186432108431E-01  2.306909577140E-01 -1.017402455182E-01
H26  1.186432108431E-01 -2.693090422860E-01 -3.982597544818E-01
H27  1.186432108431E-01 -2.306909577140E-01  1.017402455182E-01
H28 -1.186432108431E-01  2.693090422860E-01  3.982597544818E-01
C29 -3.183793942632E-01  2.511506507495E-01 -2.661278046400E-01
C30  3.183793942632E-01 -2.488493492505E-01 -2.338721953600E-01
C31  3.183793942632E-01 -2.511506507495E-01  2.661278046400E-01
C32 -3.183793942632E-01  2.488493492505E-01  2.338721953600E-01
H33 -3.539743580089E-01  9.756203841354E-02 -2.364289358588E-01
H34  3.539743580089E-01 -4.024379615865E-01 -2.635710641412E-01
H35  3.539743580089E-01 -9.756203841354E-02  2.364289358588E-01
H36 -3.539743580089E-01  4.024379615865E-01  2.635710641412E-01
C37 -4.110819644852E-01  3.731549413363E-01 -3.842532844559E-01
C38  4.110819644852E-01 -1.268450586637E-01 -1.157467155441E-01
C39  4.110819644852E-01 -3.731549413363E-01  3.842532844559E-01
C40 -4.110819644852E-01  1.268450586637E-01  1.157467155441E-01
C41 -4.547021863980E-01 -3.000617026250E-01  4.629503952521E-01
C42  4.547021863980E-01  1.999382973750E-01  3.704960474792E-02
C43  4.547021863980E-01  3.000617026250E-01 -4.629503952521E-01
C44 -4.547021863980E-01 -1.999382973750E-01 -3.704960474792E-02
H45 -4.195659954765E-01 -1.457016625656E-01  4.337565412185E-01
H46  4.195659954765E-01  3.542983374344E-01  6.624345878148E-02
H47  4.195659954765E-01  1.457016625656E-01 -4.337565412185E-01
H48 -4.195659954765E-01 -3.542983374344E-01 -6.624345878148E-02


#===END

data_OPT_STEP_13

_symmetry_space_group_name_H-M 'P 1'
_cell_length_a      9.63683278
_cell_length_b      6.34926361
_cell_length_c      8.72136105
_cell_angle_alpha   90.000000
_cell_angle_beta  103.278144
_cell_angle_gamma   90.000000

loop_
_atom_site_label
_atom_site_fract_x
_atom_site_fract_y
_atom_site_fract_z
C1 -3.647749147270E-01 -4.209667582643E-01 -4.220205789032E-01
C2  3.647749147270E-01  7.903324173572E-02 -7.797942109684E-02
C3  3.647749147270E-01  4.209667582643E-01  4.220205789032E-01
C4 -3.647749147270E-01 -7.903324173572E-02  7.797942109684E-02
C5 -2.271901784538E-01 -3.486906835102E-01 -3.412204901686E-01
C6  2.271901784538E-01  1.513093164898E-01 -1.587795098314E-01
C7  2.271901784538E-01  3.486906835102E-01  3.412204901686E-01
C8 -2.271901784538E-01 -1.513093164898E-01  1.587795098314E-01
H9 -1.930531428132E-01 -1.935879875969E-01 -3.696030101025E-01
H10  1.930531428132E-01  3.064120124031E-01 -1.303969898975E-01
H11  1.930531428132E-01  1.935879875969E-01  3.696030101025E-01
H12 -1.930531428132E-01 -3.064120124031E-01  1.303969898975E-01
C13 -1.409452501828E-01 -4.709092937977E-01 -2.300609955249E-01
C14  1.409452501828E-01  2.909070620235E-02 -2.699390044751E-01
C15  1.409452501828E-01  4.709092937977E-01  2.300609955249E-01
C16 -1.409452501828E-01 -2.909070620235E-02  2.699390044751E-01
H17 -3.687634467926E-02 -4.136174112899E-01 -1.692262103256E-01
H18  3.687634467926E-02  8.638258871006E-02 -3.307737896744E-01
H19  3.687634467926E-02  4.136174112899E-01  1.692262103256E-01
H20 -3.687634467926E-02 -8.638258871006E-02  3.307737896744E-01
C21 -1.867102197520E-01  3.262488621117E-01 -1.925243639313E-01
C22  1.867102197520E-01 -1.737511378883E-01 -3.074756360687E-01
C23  1.867102197520E-01 -3.262488621117E-01  1.925243639313E-01
C24 -1.867102197520E-01  1.737511378883E-01  3.074756360687E-01
H25 -1.174065216827E-01  2.309761083319E-01 -1.036237322906E-01
H26  1.174065216827E-01 -2.690238916681E-01 -3.963762677094E-01
H27  1.174065216827E-01 -2.309761083319E-01  1.036237322906E-01
H28 -1.174065216827E-01  2.690238916681E-01  3.963762677094E-01
C29 -3.172818525031E-01  2.508880062884E-01 -2.676547765251E-01
C30  3.172818525031E-01 -2.491119937116E-01 -2.323452234749E-01
C31  3.172818525031E-01 -2.508880062884E-01  2.676547765251E-01
C32 -3.172818525031E-01  2.491119937116E-01  2.323452234749E-01
H33 -3.521630321548E-01  9.654557549872E-02 -2.391137294726E-01
H34  3.521630321548E-01 -4.034544245013E-01 -2.608862705274E-01
H35  3.521630321548E-01 -9.654557549872E-02  2.391137294726E-01
H36 -3.521630321548E-01  4.034544245013E-01  2.608862705274E-01
C37 -4.106171798569E-01  3.731758743809E-01 -3.848525519104E-01
C38  4.106171798569E-01 -1.268241256191E-01 -1.151474480896E-01
C39  4.106171798569E-01 -3.731758743809E-01  3.848525519104E-01
C40 -4.106171798569E-01  1.268241256191E-01  1.151474480896E-01
C41 -4.553841654002E-01 -2.995399015612E-01  4.637474841656E-01
C42  4.553841654002E-01  2.004600984388E-01  3.625251583435E-02
C43  4.553841654002E-01  2.995399015612E-01 -4.637474841656E-01
C44 -4.553841654002E-01 -2.004600984388E-01 -3.625251583435E-02
H45 -4.209403360487E-01 -1.444710317079E-01  4.356175828904E-01
H46  4.209403360487E-01  3.555289682921E-01  6.438241710960E-02
H47  4.209403360487E-01  1.444710317079E-01 -4.356175828904E-01
H48 -4.209403360487E-01 -3.555289682921E-01 -6.438241710960E-02


#===END

data_OPT_STEP_14

_symmetry_space_group_name_H-M 'P 1'
_cell_length_a      9.61889692
_cell_length_b      6.36969318
_cell_length_c      8.71530735
_cell_angle_alpha   90.000000
_cell_angle_beta  103.103556
_cell_angle_gamma   90.000000

loop_
_atom_site_label
_atom_site_fract_x
_atom_site_fract_y
_atom_site_fract_z
C1 -3.643299952131E-01 -4.216568158217E-01 -4.232216193820E-01
C2  3.643299952131E-01  7.834318417833E-02 -7.677838061801E-02
C3  3.643299952131E-01  4.216568158217E-01  4.232216193820E-01
C4 -3.643299952131E-01 -7.834318417833E-02  7.677838061801E-02
C5 -2.272674755667E-01 -3.484429828664E-01 -3.417554748234E-01
C6  2.272674755667E-01  1.515570171336E-01 -1.582445251766E-01
C7  2.272674755667E-01  3.484429828664E-01  3.417554748234E-01
C8 -2.272674755667E-01 -1.515570171336E-01  1.582445251766E-01
H9 -1.935493482965E-01 -1.933764290674E-01 -3.698314024060E-01
H10  1.935493482965E-01  3.066235709326E-01 -1.301685975940E-01
H11  1.935493482965E-01  1.933764290674E-01  3.698314024060E-01
H12 -1.935493482965E-01 -3.066235709326E-01  1.301685975940E-01
C13 -1.409270291362E-01 -4.697398526440E-01 -2.305245160706E-01
C14  1.409270291362E-01  3.026014735596E-02 -2.694754839294E-01
C15  1.409270291362E-01  4.697398526440E-01  2.305245160706E-01
C16 -1.409270291362E-01 -3.026014735596E-02  2.694754839294E-01
H17 -3.707197769518E-02 -4.118508750134E-01 -1.695324554108E-01
H18  3.707197769518E-02  8.814912498661E-02 -3.304675445892E-01
H19  3.707197769518E-02  4.118508750134E-01  1.695324554108E-01
H20 -3.707197769518E-02 -8.814912498661E-02  3.304675445892E-01
C21 -1.856585657593E-01  3.266229515391E-01 -1.943217303503E-01
C22  1.856585657593E-01 -1.733770484609E-01 -3.056782696497E-01
C23  1.856585657593E-01 -3.266229515391E-01  1.943217303503E-01
C24 -1.856585657593E-01  1.733770484609E-01  3.056782696497E-01
H25 -1.157448024837E-01  2.313144036457E-01 -1.062804733111E-01
H26  1.157448024837E-01 -2.686855963543E-01 -3.937195266889E-01
H27  1.157448024837E-01 -2.313144036457E-01  1.062804733111E-01
H28 -1.157448024837E-01  2.686855963543E-01  3.937195266889E-01
C29 -3.162212525201E-01  2.511533759297E-01 -2.690859155270E-01
C30  3.162212525201E-01 -2.488466240703E-01 -2.309140844730E-01
C31  3.162212525201E-01 -2.511533759297E-01  2.690859155270E-01
C32 -3.162212525201E-01  2.488466240703E-01  2.309140844730E-01
H33 -3.508999269125E-01  9.698278161042E-02 -2.406864628528E-01
H34  3.508999269125E-01 -4.030172183896E-01 -2.593135371472E-01
H35  3.508999269125E-01 -9.698278161042E-02  2.406864628528E-01
H36 -3.508999269125E-01  4.030172183896E-01  2.593135371472E-01
C37 -4.101756343794E-01  3.734238183412E-01 -3.854044073255E-01
C38  4.101756343794E-01 -1.265761816588E-01 -1.145955926745E-01
C39  4.101756343794E-01 -3.734238183412E-01  3.854044073255E-01
C40 -4.101756343794E-01  1.265761816588E-01  1.145955926745E-01
C41 -4.551365833499E-01 -3.007968241239E-01  4.627389467497E-01
C42  4.551365833499E-01  1.992031758761E-01  3.726105325028E-02
C43  4.551365833499E-01  3.007968241239E-01 -4.627389467497E-01
C44 -4.551365833499E-01 -1.992031758761E-01 -3.726105325028E-02
H45 -4.203676160841E-01 -1.467682008893E-01  4.337620325599E-01
H46  4.203676160841E-01  3.532317991107E-01  6.623796744010E-02
H47  4.203676160841E-01  1.467682008893E-01 -4.337620325599E-01
H48 -4.203676160841E-01 -3.532317991107E-01 -6.623796744010E-02


#===END

data_OPT_STEP_15

_symmetry_space_group_name_H-M 'P 1'
_cell_length_a      9.63513939
_cell_length_b      6.35203554
_cell_length_c      8.72426911
_cell_angle_alpha   90.000000
_cell_angle_beta  103.268825
_cell_angle_gamma   90.000000

loop_
_atom_site_label
_atom_site_fract_x
_atom_site_fract_y
_atom_site_fract_z
C1 -3.646263472664E-01 -4.212051827050E-01 -4.223979378282E-01
C2  3.646263472664E-01  7.879481729498E-02 -7.760206217180E-02
C3  3.646263472664E-01  4.212051827050E-01  4.223979378282E-01
C4 -3.646263472664E-01 -7.879481729498E-02  7.760206217180E-02
C5 -2.272072164496E-01 -3.486424602631E-01 -3.413706306702E-01
C6  2.272072164496E-01  1.513575397369E-01 -1.586293693298E-01
C7  2.272072164496E-01  3.486424602631E-01  3.413706306702E-01
C8 -2.272072164496E-01 -1.513575397369E-01  1.586293693298E-01
H9 -1.931742306993E-01 -1.935343388992E-01 -3.696917634526E-01
H10  1.931742306993E-01  3.064656611008E-01 -1.303082365474E-01
H11  1.931742306993E-01  1.935343388992E-01  3.696917634526E-01
H12 -1.931742306993E-01 -3.064656611008E-01  1.303082365474E-01
C13 -1.409583853909E-01 -4.706078555795E-01 -2.301491930075E-01
C14  1.409583853909E-01  2.939214442051E-02 -2.698508069925E-01
C15  1.409583853909E-01  4.706078555795E-01  2.301491930075E-01
C16 -1.409583853909E-01 -2.939214442051E-02  2.698508069925E-01
H17 -3.695712116243E-02 -4.131125694807E-01 -1.692706711665E-01
H18  3.695712116243E-02  8.688743051931E-02 -3.307293288335E-01
H19  3.695712116243E-02  4.131125694807E-01  1.692706711665E-01
H20 -3.695712116243E-02 -8.688743051931E-02  3.307293288335E-01
C21 -1.864318188150E-01  3.262655476285E-01 -1.929992896271E-01
C22  1.864318188150E-01 -1.737344523715E-01 -3.070007103729E-01
C23  1.864318188150E-01 -3.262655476285E-01  1.929992896271E-01
C24 -1.864318188150E-01  1.737344523715E-01  3.070007103729E-01
H25 -1.169569544371E-01  2.309487549933E-01 -1.043388618711E-01
H26  1.169569544371E-01 -2.690512450067E-01 -3.956611381289E-01
H27  1.169569544371E-01 -2.309487549933E-01  1.043388618711E-01
H28 -1.169569544371E-01  2.690512450067E-01  3.956611381289E-01
C29 -3.169949875457E-01  2.508633036899E-01 -2.680434742514E-01
C30  3.169949875457E-01 -2.491366963101E-01 -2.319565257486E-01
C31  3.169949875457E-01 -2.508633036899E-01  2.680434742514E-01
C32 -3.169949875457E-01  2.491366963101E-01  2.319565257486E-01
H33 -3.518298634211E-01  9.653640565016E-02 -2.395217397487E-01
H34  3.518298634211E-01 -4.034635943498E-01 -2.604782602513E-01
H35  3.518298634211E-01 -9.653640565016E-02  2.395217397487E-01
H36 -3.518298634211E-01  4.034635943498E-01  2.604782602513E-01
C37 -4.105031236390E-01  3.731975911345E-01 -3.849946839576E-01
C38  4.105031236390E-01 -1.268024088655E-01 -1.150053160424E-01
C39  4.105031236390E-01 -3.731975911345E-01  3.849946839576E-01
C40 -4.105031236390E-01  1.268024088655E-01  1.150053160424E-01
C41 -4.552767800085E-01 -2.998898491910E-01  4.634106504240E-01
C42  4.552767800085E-01  2.001101508090E-01  3.658934957601E-02
C43  4.552767800085E-01  2.998898491910E-01 -4.634106504240E-01
C44 -4.552767800085E-01 -2.001101508090E-01 -3.658934957601E-02
H45 -4.207194435253E-01 -1.450931863037E-01  4.350136520096E-01
H46  4.207194435253E-01  3.549068136963E-01  6.498634799041E-02
H47  4.207194435253E-01  1.450931863037E-01 -4.350136520096E-01
H48 -4.207194435253E-01 -3.549068136963E-01 -6.498634799041E-02


#===END

data_OPT_STEP_16

_symmetry_space_group_name_H-M 'P 1'
_cell_length_a      9.63231553
_cell_length_b      6.36128011
_cell_length_c      8.72774418
_cell_angle_alpha   90.000000
_cell_angle_beta  103.250728
_cell_angle_gamma   90.000000

loop_
_atom_site_label
_atom_site_fract_x
_atom_site_fract_y
_atom_site_fract_z
C1 -3.645414088056E-01 -4.215532609124E-01 -4.225564933936E-01
C2  3.645414088056E-01  7.844673908759E-02 -7.744350660642E-02
C3  3.645414088056E-01  4.215532609124E-01  4.225564933936E-01
C4 -3.645414088056E-01 -7.844673908759E-02  7.744350660642E-02
C5 -2.271131709221E-01 -3.491719503119E-01 -3.415454788852E-01
C6  2.271131709221E-01  1.508280496881E-01 -1.584545211148E-01
C7  2.271131709221E-01  3.491719503119E-01  3.415454788852E-01
C8 -2.271131709221E-01 -1.508280496881E-01  1.584545211148E-01
H9 -1.931972904664E-01 -1.941426667059E-01 -3.696950302226E-01
H10  1.931972904664E-01  3.058573332941E-01 -1.303049697774E-01
H11  1.931972904664E-01  1.941426667059E-01  3.696950302226E-01
H12 -1.931972904664E-01 -3.058573332941E-01  1.303049697774E-01
C13 -1.409828369017E-01 -4.707073232219E-01 -2.301646493947E-01
C14  1.409828369017E-01  2.929267677810E-02 -2.698353506053E-01
C15  1.409828369017E-01  4.707073232219E-01  2.301646493947E-01
C16 -1.409828369017E-01 -2.929267677810E-02  2.698353506053E-01
H17 -3.694233440458E-02 -4.132204100956E-01 -1.694553831642E-01
H18  3.694233440458E-02  8.677958990440E-02 -3.305446168358E-01
H19  3.694233440458E-02  4.132204100956E-01  1.694553831642E-01
H20 -3.694233440458E-02 -8.677958990440E-02  3.305446168358E-01
C21 -1.865331805794E-01  3.265836931122E-01 -1.929787150124E-01
C22  1.865331805794E-01 -1.734163068878E-01 -3.070212849876E-01
C23  1.865331805794E-01 -3.265836931122E-01  1.929787150124E-01
C24 -1.865331805794E-01  1.734163068878E-01  3.070212849876E-01
H25 -1.170185264771E-01  2.314089468056E-01 -1.043974022611E-01
H26  1.170185264771E-01 -2.685910531944E-01 -3.956025977389E-01
H27  1.170185264771E-01 -2.314089468056E-01  1.043974022611E-01
H28 -1.170185264771E-01  2.685910531944E-01  3.956025977389E-01
C29 -3.169197174371E-01  2.509990428507E-01 -2.683834928139E-01
C30  3.169197174371E-01 -2.490009571493E-01 -2.316165071861E-01
C31  3.169197174371E-01 -2.509990428507E-01  2.683834928139E-01
C32 -3.169197174371E-01  2.490009571493E-01  2.316165071861E-01
H33 -3.517017065586E-01  9.678386214225E-02 -2.399892924600E-01
H34  3.517017065586E-01 -4.032161378577E-01 -2.600107075400E-01
H35  3.517017065586E-01 -9.678386214225E-02  2.399892924600E-01
H36 -3.517017065586E-01  4.032161378577E-01  2.600107075400E-01
C37 -4.103735127460E-01  3.730787950958E-01 -3.853526196170E-01
C38  4.103735127460E-01 -1.269212049042E-01 -1.146473803830E-01
C39  4.103735127460E-01 -3.730787950958E-01  3.853526196170E-01
C40 -4.103735127460E-01  1.269212049042E-01  1.146473803830E-01
C41 -4.553222075091E-01 -3.000641020690E-01  4.636490522767E-01
C42  4.553222075091E-01  1.999358979310E-01  3.635094772325E-02
C43  4.553222075091E-01  3.000641020690E-01 -4.636490522767E-01
C44 -4.553222075091E-01 -1.999358979310E-01 -3.635094772325E-02
H45 -4.206598101701E-01 -1.455733239182E-01  4.351807670486E-01
H46  4.206598101701E-01  3.544266760818E-01  6.481923295142E-02
H47  4.206598101701E-01  1.455733239182E-01 -4.351807670486E-01
H48 -4.206598101701E-01 -3.544266760818E-01 -6.481923295142E-02


#===END

data_OPT_STEP_17

_symmetry_space_group_name_H-M 'P 1'
_cell_length_a      9.62630175
_cell_length_b      6.36800931
_cell_length_c      8.72803586
_cell_angle_alpha   90.000000
_cell_angle_beta  103.194126
_cell_angle_gamma   90.000000

loop_
_atom_site_label
_atom_site_fract_x
_atom_site_fract_y
_atom_site_fract_z
C1 -3.645996348030E-01 -4.216093496839E-01 -4.224618422221E-01
C2  3.645996348030E-01  7.839065031613E-02 -7.753815777793E-02
C3  3.645996348030E-01  4.216093496839E-01  4.224618422221E-01
C4 -3.645996348030E-01 -7.839065031613E-02  7.753815777793E-02
C5 -2.272168438495E-01 -3.492448341256E-01 -3.413491833819E-01
C6  2.272168438495E-01  1.507551658744E-01 -1.586508166181E-01
C7  2.272168438495E-01  3.492448341256E-01  3.413491833819E-01
C8 -2.272168438495E-01 -1.507551658744E-01  1.586508166181E-01
H9 -1.933553928284E-01 -1.943012961319E-01 -3.693990283460E-01
H10  1.933553928284E-01  3.056987038681E-01 -1.306009716540E-01
H11  1.933553928284E-01  1.943012961319E-01  3.693990283460E-01
H12 -1.933553928284E-01 -3.056987038681E-01  1.306009716540E-01
C13 -1.410411627548E-01 -4.706700687517E-01 -2.301153350154E-01
C14  1.410411627548E-01  2.932993124833E-02 -2.698846649846E-01
C15  1.410411627548E-01  4.706700687517E-01  2.301153350154E-01
C16 -1.410411627548E-01 -2.932993124833E-02  2.698846649846E-01
H17 -3.695792469958E-02 -4.130677504835E-01 -1.696464180686E-01
H18  3.695792469958E-02  8.693224951651E-02 -3.303535819314E-01
H19  3.695792469958E-02  4.130677504835E-01  1.696464180686E-01
H20 -3.695792469958E-02 -8.693224951651E-02  3.303535819314E-01
C21 -1.866181889200E-01  3.268195569298E-01 -1.929894084652E-01
C22  1.866181889200E-01 -1.731804430702E-01 -3.070105915348E-01
C23  1.866181889200E-01 -3.268195569298E-01  1.929894084652E-01
C24 -1.866181889200E-01  1.731804430702E-01  3.070105915348E-01
H25 -1.170217693348E-01  2.317016843607E-01 -1.045528729734E-01
H26  1.170217693348E-01 -2.682983156393E-01 -3.954471270266E-01
H27  1.170217693348E-01 -2.317016843607E-01  1.045528729734E-01
H28 -1.170217693348E-01  2.682983156393E-01  3.954471270266E-01
C29 -3.171439441083E-01  2.514957186626E-01 -2.681925179018E-01
C30  3.171439441083E-01 -2.485042813374E-01 -2.318074820982E-01
C31  3.171439441083E-01 -2.514957186626E-01  2.681925179018E-01
C32 -3.171439441083E-01  2.485042813374E-01  2.318074820982E-01
H33 -3.520354424661E-01  9.756242796659E-02 -2.396222666790E-01
H34  3.520354424661E-01 -4.024375720334E-01 -2.603777333210E-01
H35  3.520354424661E-01 -9.756242796659E-02  2.396222666790E-01
H36 -3.520354424661E-01  4.024375720334E-01  2.603777333210E-01
C37 -4.105865373221E-01  3.734460468102E-01 -3.850898381465E-01
C38  4.105865373221E-01 -1.265539531898E-01 -1.149101618535E-01
C39  4.105865373221E-01 -3.734460468102E-01  3.850898381465E-01
C40 -4.105865373221E-01  1.265539531898E-01  1.149101618535E-01
C41 -4.551668077561E-01 -3.004444888795E-01  4.635230904619E-01
C42  4.551668077561E-01  1.995555111205E-01  3.647690953809E-02
C43  4.551668077561E-01  3.004444888795E-01 -4.635230904619E-01
C44 -4.551668077561E-01 -1.995555111205E-01 -3.647690953809E-02
H45 -4.204215901922E-01 -1.461360883043E-01  4.350328449241E-01
H46  4.204215901922E-01  3.538639116957E-01  6.496715507592E-02
H47  4.204215901922E-01  1.461360883043E-01 -4.350328449241E-01
H48 -4.204215901922E-01 -3.538639116957E-01 -6.496715507592E-02


#===END

data_OPT_STEP_18

_symmetry_space_group_name_H-M 'P 1'
_cell_length_a      9.61620366
_cell_length_b      6.38420082
_cell_length_c      8.70923706
_cell_angle_alpha   90.000000
_cell_angle_beta  103.046175
_cell_angle_gamma   90.000000

loop_
_atom_site_label
_atom_site_fract_x
_atom_site_fract_y
_atom_site_fract_z
C1 -3.646528237762E-01 -4.216894186309E-01 -4.224969189547E-01
C2  3.646528237762E-01  7.831058136914E-02 -7.750308104531E-02
C3  3.646528237762E-01  4.216894186309E-01  4.224969189547E-01
C4 -3.646528237762E-01 -7.831058136914E-02  7.750308104531E-02
C5 -2.274070806466E-01 -3.491905680225E-01 -3.411982038604E-01
C6  2.274070806466E-01  1.508094319775E-01 -1.588017961396E-01
C7  2.274070806466E-01  3.491905680225E-01  3.411982038604E-01
C8 -2.274070806466E-01 -1.508094319775E-01  1.588017961396E-01
H9 -1.936605640909E-01 -1.944649950058E-01 -3.691050683405E-01
H10  1.936605640909E-01  3.055350049942E-01 -1.308949316595E-01
H11  1.936605640909E-01  1.944649950058E-01  3.691050683405E-01
H12 -1.936605640909E-01 -3.055350049942E-01  1.308949316595E-01
C13 -1.408873255633E-01 -4.707786498387E-01 -2.305074986473E-01
C14  1.408873255633E-01  2.922135016128E-02 -2.694925013527E-01
C15  1.408873255633E-01  4.707786498387E-01  2.305074986473E-01
C16 -1.408873255633E-01 -2.922135016128E-02  2.694925013527E-01
H17 -3.685034548791E-02 -4.129870819153E-01 -1.702244871196E-01
H18  3.685034548791E-02  8.701291808473E-02 -3.297755128804E-01
H19  3.685034548791E-02  4.129870819153E-01  1.702244871196E-01
H20 -3.685034548791E-02 -8.701291808473E-02  3.297755128804E-01
C21 -1.863273452288E-01  3.269859189805E-01 -1.934554887793E-01
C22  1.863273452288E-01 -1.730140810195E-01 -3.065445112207E-01
C23  1.863273452288E-01 -3.269859189805E-01  1.934554887793E-01
C24 -1.863273452288E-01  1.730140810195E-01  3.065445112207E-01
H25 -1.167064790335E-01  2.321928166500E-01 -1.049931618909E-01
H26  1.167064790335E-01 -2.678071833500E-01 -3.950068381091E-01
H27  1.167064790335E-01 -2.321928166500E-01  1.049931618909E-01
H28 -1.167064790335E-01  2.678071833500E-01  3.950068381091E-01
C29 -3.169307264139E-01  2.518988320441E-01 -2.684408439588E-01
C30  3.169307264139E-01 -2.481011679559E-01 -2.315591560412E-01
C31  3.169307264139E-01 -2.518988320441E-01  2.684408439588E-01
C32 -3.169307264139E-01  2.481011679559E-01  2.315591560412E-01
H33 -3.517675657071E-01  9.827566046063E-02 -2.397870535568E-01
H34  3.517675657071E-01 -4.017243395394E-01 -2.602129464432E-01
H35  3.517675657071E-01 -9.827566046063E-02  2.397870535568E-01
H36 -3.517675657071E-01  4.017243395394E-01  2.602129464432E-01
C37 -4.103837361156E-01  3.734473122472E-01 -3.854125518879E-01
C38  4.103837361156E-01 -1.265526877528E-01 -1.145874481121E-01
C39  4.103837361156E-01 -3.734473122472E-01  3.854125518879E-01
C40 -4.103837361156E-01  1.265526877528E-01  1.145874481121E-01
C41 -4.553216239186E-01 -3.006544290325E-01  4.636615421134E-01
C42  4.553216239186E-01  1.993455709675E-01  3.633845788655E-02
C43  4.553216239186E-01  3.006544290325E-01 -4.636615421134E-01
C44 -4.553216239186E-01 -1.993455709675E-01 -3.633845788655E-02
H45 -4.206645222817E-01 -1.465533638085E-01  4.352568442760E-01
H46  4.206645222817E-01  3.534466361915E-01  6.474315572403E-02
H47  4.206645222817E-01  1.465533638085E-01 -4.352568442760E-01
H48 -4.206645222817E-01 -3.534466361915E-01 -6.474315572403E-02


#===END

data_OPT_STEP_19

_symmetry_space_group_name_H-M 'P 1'
_cell_length_a      9.62582464
_cell_length_b      6.37175333
_cell_length_c      8.72478161
_cell_angle_alpha   90.000000
_cell_angle_beta  103.174487
_cell_angle_gamma   90.000000

loop_
_atom_site_label
_atom_site_fract_x
_atom_site_fract_y
_atom_site_fract_z
C1 -3.646253025534E-01 -4.216457514465E-01 -4.224772234266E-01
C2  3.646253025534E-01  7.835424855353E-02 -7.752277657344E-02
C3  3.646253025534E-01  4.216457514465E-01  4.224772234266E-01
C4 -3.646253025534E-01 -7.835424855353E-02  7.752277657344E-02
C5 -2.273309167474E-01 -3.491741683232E-01 -3.412202221336E-01
C6  2.273309167474E-01  1.508258316768E-01 -1.587797778664E-01
C7  2.273309167474E-01  3.491741683232E-01  3.412202221336E-01
C8 -2.273309167474E-01 -1.508258316768E-01  1.587797778664E-01
H9 -1.934913569866E-01 -1.943427228901E-01 -3.692505898465E-01
H10  1.934913569866E-01  3.056572771099E-01 -1.307494101535E-01
H11  1.934913569866E-01  1.943427228901E-01  3.692505898465E-01
H12 -1.934913569866E-01 -3.056572771099E-01  1.307494101535E-01
C13 -1.409540963298E-01 -4.708019959127E-01 -2.303052544191E-01
C14  1.409540963298E-01  2.919800408729E-02 -2.696947455809E-01
C15  1.409540963298E-01  4.708019959127E-01  2.303052544191E-01
C16 -1.409540963298E-01 -2.919800408729E-02  2.696947455809E-01
H17 -3.691196255364E-02 -4.130370927105E-01 -1.699365843377E-01
H18  3.691196255364E-02  8.696290728955E-02 -3.300634156623E-01
H19  3.691196255364E-02  4.130370927105E-01  1.699365843377E-01
H20 -3.691196255364E-02 -8.696290728955E-02  3.300634156623E-01
C21 -1.864885246260E-01  3.267744498468E-01 -1.931789046296E-01
C22  1.864885246260E-01 -1.732255501532E-01 -3.068210953704E-01
C23  1.864885246260E-01 -3.267744498468E-01  1.931789046296E-01
C24 -1.864885246260E-01  1.732255501532E-01  3.068210953704E-01
H25 -1.169032600284E-01  2.317920241021E-01 -1.046965348339E-01
H26  1.169032600284E-01 -2.682079758979E-01 -3.953034651661E-01
H27  1.169032600284E-01 -2.317920241021E-01  1.046965348339E-01
H28 -1.169032600284E-01  2.682079758979E-01  3.953034651661E-01
C29 -3.170665064303E-01  2.515849848445E-01 -2.682616045197E-01
C30  3.170665064303E-01 -2.484150151555E-01 -2.317383954803E-01
C31  3.170665064303E-01 -2.515849848445E-01  2.682616045197E-01
C32 -3.170665064303E-01  2.484150151555E-01  2.317383954803E-01
H33 -3.519323911866E-01  9.774862950609E-02 -2.396232181858E-01
H34  3.519323911866E-01 -4.022513704939E-01 -2.603767818142E-01
H35  3.519323911866E-01 -9.774862950609E-02  2.396232181858E-01
H36 -3.519323911866E-01  4.022513704939E-01  2.603767818142E-01
C37 -4.104897065664E-01  3.733628358972E-01 -3.852463792496E-01
C38  4.104897065664E-01 -1.266371641028E-01 -1.147536207504E-01
C39  4.104897065664E-01 -3.733628358972E-01  3.852463792496E-01
C40 -4.104897065664E-01  1.266371641028E-01  1.147536207504E-01
C41 -4.552296834936E-01 -3.004684752685E-01  4.635817758421E-01
C42  4.552296834936E-01  1.995315247315E-01  3.641822415789E-02
C43  4.552296834936E-01  3.004684752685E-01 -4.635817758421E-01
C44 -4.552296834936E-01 -1.995315247315E-01 -3.641822415789E-02
H45 -4.205285669262E-01 -1.461893877556E-01  4.351395459238E-01
H46  4.205285669262E-01  3.538106122444E-01  6.486045407622E-02
H47  4.205285669262E-01  1.461893877556E-01 -4.351395459238E-01
H48 -4.205285669262E-01 -3.538106122444E-01 -6.486045407622E-02


#===END

data_OPT_STEP_20

_symmetry_space_group_name_H-M 'P 1'
_cell_length_a      9.62516128
_cell_length_b      6.37575829
_cell_length_c      8.72111781
_cell_angle_alpha   90.000000
_cell_angle_beta  103.155680
_cell_angle_gamma   90.000000

loop_
_atom_site_label
_atom_site_fract_x
_atom_site_fract_y
_atom_site_fract_z
C1 -3.646250984567E-01 -4.216634374634E-01 -4.225280234669E-01
C2  3.646250984567E-01  7.833656253655E-02 -7.747197653312E-02
C3  3.646250984567E-01  4.216634374634E-01  4.225280234669E-01
C4 -3.646250984567E-01 -7.833656253655E-02  7.747197653312E-02
C5 -2.272733533126E-01 -3.493105913742E-01 -3.414258208235E-01
C6  2.272733533126E-01  1.506894086258E-01 -1.585741791765E-01
C7  2.272733533126E-01  3.493105913742E-01  3.414258208235E-01
C8 -2.272733533126E-01 -1.506894086258E-01  1.585741791765E-01
H9 -1.934632054112E-01 -1.945588829647E-01 -3.694328037168E-01
H10  1.934632054112E-01  3.054411170353E-01 -1.305671962832E-01
H11  1.934632054112E-01  1.945588829647E-01  3.694328037168E-01
H12 -1.934632054112E-01 -3.054411170353E-01  1.305671962832E-01
C13 -1.408881958909E-01 -4.708303280316E-01 -2.304731116624E-01
C14  1.408881958909E-01  2.916967196838E-02 -2.695268883376E-01
C15  1.408881958909E-01  4.708303280316E-01  2.304731116624E-01
C16 -1.408881958909E-01 -2.916967196838E-02  2.695268883376E-01
H17 -3.688200959734E-02 -4.130273205815E-01 -1.701148174772E-01
H18  3.688200959734E-02  8.697267941854E-02 -3.298851825228E-01
H19  3.688200959734E-02  4.130273205815E-01  1.701148174772E-01
H20 -3.688200959734E-02 -8.697267941854E-02  3.298851825228E-01
C21 -1.863656733252E-01  3.268204528176E-01 -1.933484664954E-01
C22  1.863656733252E-01 -1.731795471824E-01 -3.066515335046E-01
C23  1.863656733252E-01 -3.268204528176E-01  1.933484664954E-01
C24 -1.863656733252E-01  1.731795471824E-01  3.066515335046E-01
H25 -1.167810472997E-01  2.319344293838E-01 -1.048476668789E-01
H26  1.167810472997E-01 -2.680655706162E-01 -3.951523331211E-01
H27  1.167810472997E-01 -2.319344293838E-01  1.048476668789E-01
H28 -1.167810472997E-01  2.680655706162E-01  3.951523331211E-01
C29 -3.169234085557E-01  2.516362996778E-01 -2.684127949222E-01
C30  3.169234085557E-01 -2.483637003222E-01 -2.315872050778E-01
C31  3.169234085557E-01 -2.516362996778E-01  2.684127949222E-01
C32 -3.169234085557E-01  2.483637003222E-01  2.315872050778E-01
H33 -3.517927505782E-01  9.793978023171E-02 -2.396789466764E-01
H34  3.517927505782E-01 -4.020602197683E-01 -2.603210533236E-01
H35  3.517927505782E-01 -9.793978023171E-02  2.396789466764E-01
H36 -3.517927505782E-01  4.020602197683E-01  2.603210533236E-01
C37 -4.104640083186E-01  3.734619680026E-01 -3.852361920517E-01
C38  4.104640083186E-01 -1.265380319974E-01 -1.147638079483E-01
C39  4.104640083186E-01 -3.734619680026E-01  3.852361920517E-01
C40 -4.104640083186E-01  1.265380319974E-01  1.147638079483E-01
C41 -4.552848274681E-01 -3.005307034785E-01  4.635836794187E-01
C42  4.552848274681E-01  1.994692965215E-01  3.641632058133E-02
C43  4.552848274681E-01  3.005307034785E-01 -4.635836794187E-01
C44 -4.552848274681E-01 -1.994692965215E-01 -3.641632058133E-02
H45 -4.206078036393E-01 -1.463479610138E-01  4.351192423181E-01
H46  4.206078036393E-01  3.536520389862E-01  6.488075768187E-02
H47  4.206078036393E-01  1.463479610138E-01 -4.351192423181E-01
H48 -4.206078036393E-01 -3.536520389862E-01 -6.488075768187E-02


#===END

data_OPT_STEP_21

_symmetry_space_group_name_H-M 'P 1'
_cell_length_a      9.61593396
_cell_length_b      6.38224352
_cell_length_c      8.71707416
_cell_angle_alpha   90.000000
_cell_angle_beta  103.068831
_cell_angle_gamma   90.000000

loop_
_atom_site_label
_atom_site_fract_x
_atom_site_fract_y
_atom_site_fract_z
C1 -3.646694145495E-01 -4.215067814139E-01 -4.224886614347E-01
C2  3.646694145495E-01  7.849321858606E-02 -7.751133856533E-02
C3  3.646694145495E-01  4.215067814139E-01  4.224886614347E-01
C4 -3.646694145495E-01 -7.849321858606E-02  7.751133856533E-02
C5 -2.273017912582E-01 -3.491041383246E-01 -3.414701276959E-01
C6  2.273017912582E-01  1.508958616754E-01 -1.585298723041E-01
C7  2.273017912582E-01  3.491041383246E-01  3.414701276959E-01
C8 -2.273017912582E-01 -1.508958616754E-01  1.585298723041E-01
H9 -1.934886952456E-01 -1.944498914993E-01 -3.694768657744E-01
H10  1.934886952456E-01  3.055501085007E-01 -1.305231342256E-01
H11  1.934886952456E-01  1.944498914993E-01  3.694768657744E-01
H12 -1.934886952456E-01 -3.055501085007E-01  1.305231342256E-01
C13 -1.409294798902E-01 -4.704141513154E-01 -2.305102892899E-01
C14  1.409294798902E-01  2.958584868460E-02 -2.694897107101E-01
C15  1.409294798902E-01  4.704141513154E-01  2.305102892899E-01
C16 -1.409294798902E-01 -2.958584868460E-02  2.694897107101E-01
H17 -3.689344765395E-02 -4.126430188660E-01 -1.702229741214E-01
H18  3.689344765395E-02  8.735698113397E-02 -3.297770258786E-01
H19  3.689344765395E-02  4.126430188660E-01  1.702229741214E-01
H20 -3.689344765395E-02 -8.735698113397E-02  3.297770258786E-01
C21 -1.863731753403E-01  3.273396445580E-01 -1.934057789796E-01
C22  1.863731753403E-01 -1.726603554420E-01 -3.065942210204E-01
C23  1.863731753403E-01 -3.273396445580E-01  1.934057789796E-01
C24 -1.863731753403E-01  1.726603554420E-01  3.065942210204E-01
H25 -1.166476872515E-01  2.323765279902E-01 -1.051638768256E-01
H26  1.166476872515E-01 -2.676234720098E-01 -3.948361231744E-01
H27  1.166476872515E-01 -2.323765279902E-01  1.051638768256E-01
H28 -1.166476872515E-01  2.676234720098E-01  3.948361231744E-01
C29 -3.168965097683E-01  2.520410381718E-01 -2.684775770967E-01
C30  3.168965097683E-01 -2.479589618282E-01 -2.315224229033E-01
C31  3.168965097683E-01 -2.520410381718E-01  2.684775770967E-01
C32 -3.168965097683E-01  2.479589618282E-01  2.315224229033E-01
H33 -3.516920992132E-01  9.834988606253E-02 -2.398417856923E-01
H34  3.516920992132E-01 -4.016501139375E-01 -2.601582143077E-01
H35  3.516920992132E-01 -9.834988606253E-02  2.398417856923E-01
H36 -3.516920992132E-01  4.016501139375E-01  2.601582143077E-01
C37 -4.104675876028E-01  3.737090033622E-01 -3.852242921342E-01
C38  4.104675876028E-01 -1.262909966378E-01 -1.147757078658E-01
C39  4.104675876028E-01 -3.737090033622E-01  3.852242921342E-01
C40 -4.104675876028E-01  1.262909966378E-01  1.147757078658E-01
C41 -4.553311477095E-01 -3.006192559108E-01  4.636178764263E-01
C42  4.553311477095E-01  1.993807440892E-01  3.638212357371E-02
C43  4.553311477095E-01  3.006192559108E-01 -4.636178764263E-01
C44 -4.553311477095E-01 -1.993807440892E-01 -3.638212357371E-02
H45 -4.207019441851E-01 -1.464887264983E-01  4.352098250780E-01
H46  4.207019441851E-01  3.535112735017E-01  6.479017492197E-02
H47  4.207019441851E-01  1.464887264983E-01 -4.352098250780E-01
H48 -4.207019441851E-01 -3.535112735017E-01 -6.479017492197E-02


#===END

data_OPT_STEP_22

_symmetry_space_group_name_H-M 'P 1'
_cell_length_a      9.62331596
_cell_length_b      6.37686196
_cell_length_c      8.72096828
_cell_angle_alpha   90.000000
_cell_angle_beta  103.138669
_cell_angle_gamma   90.000000

loop_
_atom_site_label
_atom_site_fract_x
_atom_site_fract_y
_atom_site_fract_z
C1 -3.646434890412E-01 -4.215885947194E-01 -4.225191075287E-01
C2  3.646434890412E-01  7.841140528057E-02 -7.748089247129E-02
C3  3.646434890412E-01  4.215885947194E-01  4.225191075287E-01
C4 -3.646434890412E-01 -7.841140528057E-02  7.748089247129E-02
C5 -2.272787976745E-01 -3.492235966053E-01 -3.414757835591E-01
C6  2.272787976745E-01  1.507764033947E-01 -1.585242164409E-01
C7  2.272787976745E-01  3.492235966053E-01  3.414757835591E-01
C8 -2.272787976745E-01 -1.507764033947E-01  1.585242164409E-01
H9 -1.934444117981E-01 -1.945145457829E-01 -3.695127982808E-01
H10  1.934444117981E-01  3.054854542171E-01 -1.304872017192E-01
H11  1.934444117981E-01  1.945145457829E-01  3.695127982808E-01
H12 -1.934444117981E-01 -3.054854542171E-01  1.304872017192E-01
C13 -1.409130689496E-01 -4.706571086597E-01 -2.304890693427E-01
C14  1.409130689496E-01  2.934289134027E-02 -2.695109306573E-01
C15  1.409130689496E-01  4.706571086597E-01  2.304890693427E-01
C16 -1.409130689496E-01 -2.934289134027E-02  2.695109306573E-01
H17 -3.689843065242E-02 -4.128567020065E-01 -1.701605354969E-01
H18  3.689843065243E-02  8.714329799352E-02 -3.298394645031E-01
H19  3.689843065242E-02  4.128567020065E-01  1.701605354969E-01
H20 -3.689843065243E-02 -8.714329799352E-02  3.298394645031E-01
C21 -1.863854780465E-01  3.270273920435E-01 -1.933377958061E-01
C22  1.863854780465E-01 -1.729726079565E-01 -3.066622041939E-01
C23  1.863854780465E-01 -3.270273920435E-01  1.933377958061E-01
C24 -1.863854780465E-01  1.729726079565E-01  3.066622041939E-01
H25 -1.167285876918E-01  2.320742942304E-01 -1.049568907783E-01
H26  1.167285876918E-01 -2.679257057696E-01 -3.950431092217E-01
H27  1.167285876918E-01 -2.320742942304E-01  1.049568907783E-01
H28 -1.167285876918E-01  2.679257057696E-01  3.950431092217E-01
C29 -3.169183344561E-01  2.517739520807E-01 -2.684149584792E-01
C30  3.169183344561E-01 -2.482260479193E-01 -2.315850415208E-01
C31  3.169183344561E-01 -2.517739520807E-01  2.684149584792E-01
C32 -3.169183344561E-01  2.482260479193E-01  2.315850415208E-01
H33 -3.517424550857E-01  9.803847836789E-02 -2.397266591403E-01
H34  3.517424550857E-01 -4.019615216321E-01 -2.602733408597E-01
H35  3.517424550857E-01 -9.803847836789E-02  2.397266591403E-01
H36 -3.517424550857E-01  4.019615216321E-01  2.602733408597E-01
C37 -4.104712250829E-01  3.735566736650E-01 -3.852116775813E-01
C38  4.104712250829E-01 -1.264433263350E-01 -1.147883224187E-01
C39  4.104712250829E-01 -3.735566736650E-01  3.852116775813E-01
C40 -4.104712250829E-01  1.264433263350E-01  1.147883224187E-01
C41 -4.553026326224E-01 -3.005436545019E-01  4.635796190364E-01
C42  4.553026326224E-01  1.994563454981E-01  3.642038096359E-02
C43  4.553026326224E-01  3.005436545019E-01 -4.635796190364E-01
C44 -4.553026326224E-01 -1.994563454981E-01 -3.642038096359E-02
H45 -4.206565474070E-01 -1.463446045293E-01  4.351441611864E-01
H46  4.206565474070E-01  3.536553954707E-01  6.485583881361E-02
H47  4.206565474070E-01  1.463446045293E-01 -4.351441611864E-01
H48 -4.206565474070E-01 -3.536553954707E-01 -6.485583881361E-02


#===END

data_OPT_STEP_23

_symmetry_space_group_name_H-M 'P 1'
_cell_length_a      9.62237306
_cell_length_b      6.37872276
_cell_length_c      8.71950772
_cell_angle_alpha   90.000000
_cell_angle_beta  103.123171
_cell_angle_gamma   90.000000

loop_
_atom_site_label
_atom_site_fract_x
_atom_site_fract_y
_atom_site_fract_z
C1 -3.646438545376E-01 -4.215873436607E-01 -4.225509183066E-01
C2  3.646438545376E-01  7.841265633931E-02 -7.744908169335E-02
C3  3.646438545376E-01  4.215873436607E-01  4.225509183066E-01
C4 -3.646438545376E-01 -7.841265633931E-02  7.744908169335E-02
C5 -2.272720925073E-01 -3.492370875683E-01 -3.415571938567E-01
C6  2.272720925073E-01  1.507629124317E-01 -1.584428061433E-01
C7  2.272720925073E-01  3.492370875683E-01  3.415571938567E-01
C8 -2.272720925073E-01 -1.507629124317E-01  1.584428061433E-01
H9 -1.934268626168E-01 -1.945711654080E-01 -3.696079824843E-01
H10  1.934268626168E-01  3.054288345920E-01 -1.303920175157E-01
H11  1.934268626168E-01  1.945711654080E-01  3.696079824843E-01
H12 -1.934268626168E-01 -3.054288345920E-01  1.303920175157E-01
C13 -1.408957853684E-01 -4.706115949126E-01 -2.305678886982E-01
C14  1.408957853684E-01  2.938840508738E-02 -2.694321113018E-01
C15  1.408957853684E-01  4.706115949126E-01  2.305678886982E-01
C16 -1.408957853684E-01 -2.938840508738E-02  2.694321113018E-01
H17 -3.687616179052E-02 -4.128061799114E-01 -1.702853759273E-01
H18  3.687616179052E-02  8.719382008855E-02 -3.297146240727E-01
H19  3.687616179052E-02  4.128061799114E-01  1.702853759273E-01
H20 -3.687616179052E-02 -8.719382008855E-02  3.297146240727E-01
C21 -1.863514215531E-01  3.271269507770E-01 -1.933917597713E-01
C22  1.863514215531E-01 -1.728730492230E-01 -3.066082402287E-01
C23  1.863514215531E-01 -3.271269507770E-01  1.933917597713E-01
C24 -1.863514215531E-01  1.728730492230E-01  3.066082402287E-01
H25 -1.166964600608E-01  2.322116221007E-01 -1.050064758261E-01
H26  1.166964600608E-01 -2.677883778993E-01 -3.949935241739E-01
H27  1.166964600608E-01 -2.322116221007E-01  1.050064758261E-01
H28 -1.166964600608E-01  2.677883778993E-01  3.949935241739E-01
C29 -3.168856284952E-01  2.518784262294E-01 -2.684387430889E-01
C30  3.168856284952E-01 -2.481215737706E-01 -2.315612569111E-01
C31  3.168856284952E-01 -2.518784262294E-01  2.684387430889E-01
C32 -3.168856284952E-01  2.481215737706E-01  2.315612569111E-01
H33 -3.516682469245E-01  9.813860786236E-02 -2.397811362964E-01
H34  3.516682469245E-01 -4.018613921376E-01 -2.602188637036E-01
H35  3.516682469245E-01 -9.813860786236E-02  2.397811362964E-01
H36 -3.516682469245E-01  4.018613921376E-01  2.602188637036E-01
C37 -4.104529183170E-01  3.736114050743E-01 -3.852215426356E-01
C38  4.104529183170E-01 -1.263885949257E-01 -1.147784573644E-01
C39  4.104529183170E-01 -3.736114050743E-01  3.852215426356E-01
C40 -4.104529183170E-01  1.263885949257E-01  1.147784573644E-01
C41 -4.553296410266E-01 -3.005832648833E-01  4.635724416342E-01
C42  4.553296410266E-01  1.994167351167E-01  3.642755836582E-02
C43  4.553296410266E-01  3.005832648833E-01 -4.635724416342E-01
C44 -4.553296410266E-01 -1.994167351167E-01 -3.642755836582E-02
H45 -4.206899260723E-01 -1.464353110636E-01  4.351008332785E-01
H46  4.206899260723E-01  3.535646889364E-01  6.489916672155E-02
H47  4.206899260723E-01  1.464353110636E-01 -4.351008332785E-01
H48 -4.206899260723E-01 -3.535646889364E-01 -6.489916672155E-02


#===END

data_OPT_STEP_24

_symmetry_space_group_name_H-M 'P 1'
_cell_length_a      9.62176912
_cell_length_b      6.38000065
_cell_length_c      8.71901882
_cell_angle_alpha   90.000000
_cell_angle_beta  103.111182
_cell_angle_gamma   90.000000

loop_
_atom_site_label
_atom_site_fract_x
_atom_site_fract_y
_atom_site_fract_z
C1 -3.646396967159E-01 -4.215816699732E-01 -4.226057392856E-01
C2  3.646396967159E-01  7.841833002680E-02 -7.739426071442E-02
C3  3.646396967159E-01  4.215816699732E-01  4.226057392856E-01
C4 -3.646396967159E-01 -7.841833002680E-02  7.739426071442E-02
C5 -2.272616764306E-01 -3.492355723923E-01 -3.416731598468E-01
C6  2.272616764306E-01  1.507644276077E-01 -1.583268401532E-01
C7  2.272616764306E-01  3.492355723923E-01  3.416731598468E-01
C8 -2.272616764306E-01 -1.507644276077E-01  1.583268401532E-01
H9 -1.933915377341E-01 -1.946244632580E-01 -3.697599759105E-01
H10  1.933915377341E-01  3.053755367420E-01 -1.302400240895E-01
H11  1.933915377341E-01  1.946244632580E-01  3.697599759105E-01
H12 -1.933915377341E-01 -3.053755367420E-01  1.302400240895E-01
C13 -1.408733914453E-01 -4.705400742560E-01 -2.306744255082E-01
C14  1.408733914453E-01  2.945992574399E-02 -2.693255744918E-01
C15  1.408733914453E-01  4.705400742560E-01  2.306744255082E-01
C16 -1.408733914453E-01 -2.945992574399E-02  2.693255744918E-01
H17 -3.684397804439E-02 -4.127206975352E-01 -1.704732010746E-01
H18  3.684397804439E-02  8.727930246485E-02 -3.295267989254E-01
H19  3.684397804439E-02  4.127206975352E-01  1.704732010746E-01
H20 -3.684397804439E-02 -8.727930246485E-02  3.295267989254E-01
C21 -1.863141032469E-01  3.272533079960E-01 -1.934469538089E-01
C22  1.863141032469E-01 -1.727466920040E-01 -3.065530461911E-01
C23  1.863141032469E-01 -3.272533079960E-01  1.934469538089E-01
C24 -1.863141032469E-01  1.727466920040E-01  3.065530461911E-01
H25 -1.166703991012E-01  2.323875310522E-01 -1.050471355123E-01
H26  1.166703991012E-01 -2.676124689478E-01 -3.949528644877E-01
H27  1.166703991012E-01 -2.323875310522E-01  1.050471355123E-01
H28 -1.166703991012E-01  2.676124689478E-01  3.949528644877E-01
C29 -3.168407279240E-01  2.519801637517E-01 -2.684713824615E-01
C30  3.168407279240E-01 -2.480198362483E-01 -2.315286175385E-01
C31  3.168407279240E-01 -2.519801637517E-01  2.684713824615E-01
C32 -3.168407279240E-01  2.480198362483E-01  2.315286175385E-01
H33 -3.516092539687E-01  9.828108411858E-02 -2.397757030193E-01
H34  3.516092539687E-01 -4.017189158814E-01 -2.602242969807E-01
H35  3.516092539687E-01 -9.828108411858E-02  2.397757030193E-01
H36 -3.516092539687E-01  4.017189158814E-01  2.602242969807E-01
C37 -4.104219963226E-01  3.736521471253E-01 -3.852484317279E-01
C38  4.104219963226E-01 -1.263478528747E-01 -1.147515682721E-01
C39  4.104219963226E-01 -3.736521471253E-01  3.852484317279E-01
C40 -4.104219963226E-01  1.263478528747E-01  1.147515682721E-01
C41 -4.553521947647E-01 -3.006262767154E-01  4.635355513574E-01
C42  4.553521947647E-01  1.993737232846E-01  3.646444864261E-02
C43  4.553521947647E-01  3.006262767154E-01 -4.635355513574E-01
C44 -4.553521947647E-01 -1.993737232846E-01 -3.646444864261E-02
H45 -4.207629131807E-01 -1.464581107971E-01  4.350915880772E-01
H46  4.207629131807E-01  3.535418892029E-01  6.490841192282E-02
H47  4.207629131807E-01  1.464581107971E-01 -4.350915880772E-01
H48 -4.207629131807E-01 -3.535418892029E-01 -6.490841192282E-02


#===END

data_OPT_STEP_25

_symmetry_space_group_name_H-M 'P 1'
_cell_length_a      9.62058743
_cell_length_b      6.38068346
_cell_length_c      8.71858032
_cell_angle_alpha   90.000000
_cell_angle_beta  103.094764
_cell_angle_gamma   90.000000

loop_
_atom_site_label
_atom_site_fract_x
_atom_site_fract_y
_atom_site_fract_z
C1 -3.646432548756E-01 -4.215411480194E-01 -4.226512713340E-01
C2  3.646432548756E-01  7.845885198057E-02 -7.734872866599E-02
C3  3.646432548756E-01  4.215411480194E-01  4.226512713340E-01
C4 -3.646432548756E-01 -7.845885198057E-02  7.734872866599E-02
C5 -2.272665682763E-01 -3.491642794512E-01 -3.417659647793E-01
C6  2.272665682763E-01  1.508357205488E-01 -1.582340352207E-01
C7  2.272665682763E-01  3.491642794512E-01  3.417659647793E-01
C8 -2.272665682763E-01 -1.508357205488E-01  1.582340352207E-01
H9 -1.933753696315E-01 -1.945972243825E-01 -3.698984194129E-01
H10  1.933753696315E-01  3.054027756175E-01 -1.301015805871E-01
H11  1.933753696315E-01  1.945972243825E-01  3.698984194129E-01
H12 -1.933753696315E-01 -3.054027756175E-01  1.301015805871E-01
C13 -1.408557084595E-01 -4.704273526922E-01 -2.307802600034E-01
C14  1.408557084595E-01  2.957264730780E-02 -2.692197399966E-01
C15  1.408557084595E-01  4.704273526922E-01  2.307802600034E-01
C16 -1.408557084595E-01 -2.957264730780E-02  2.692197399966E-01
H17 -3.681425270978E-02 -4.125897809506E-01 -1.706616682862E-01
H18  3.681425270978E-02  8.741021904938E-02 -3.293383317138E-01
H19  3.681425270978E-02  4.125897809506E-01  1.706616682862E-01
H20 -3.681425270978E-02 -8.741021904938E-02  3.293383317138E-01
C21 -1.862809735626E-01  3.273918858212E-01 -1.934979422597E-01
C22  1.862809735626E-01 -1.726081141788E-01 -3.065020577403E-01
C23  1.862809735626E-01 -3.273918858212E-01  1.934979422597E-01
C24 -1.862809735626E-01  1.726081141788E-01  3.065020577403E-01
H25 -1.166295402499E-01  2.325635716104E-01 -1.051050891176E-01
H26  1.166295402499E-01 -2.674364283896E-01 -3.948949108824E-01
H27  1.166295402499E-01 -2.325635716104E-01  1.051050891176E-01
H28 -1.166295402499E-01  2.674364283896E-01  3.948949108824E-01
C29 -3.168113034974E-01  2.520910452402E-01 -2.684705830205E-01
C30  3.168113034974E-01 -2.479089547598E-01 -2.315294169795E-01
C31  3.168113034974E-01 -2.520910452402E-01  2.684705830205E-01
C32 -3.168113034974E-01  2.479089547598E-01  2.315294169795E-01
H33 -3.515617226851E-01  9.840720986760E-02 -2.397463689593E-01
H34  3.515617226851E-01 -4.015927901324E-01 -2.602536310407E-01
H35  3.515617226851E-01 -9.840720986760E-02  2.397463689593E-01
H36 -3.515617226851E-01  4.015927901324E-01  2.602536310407E-01
C37 -4.104047517303E-01  3.737031758445E-01 -3.852517860479E-01
C38  4.104047517303E-01 -1.262968241555E-01 -1.147482139521E-01
C39  4.104047517303E-01 -3.737031758445E-01  3.852517860479E-01
C40 -4.104047517303E-01  1.262968241555E-01  1.147482139521E-01
C41 -4.553733299248E-01 -3.006381153323E-01  4.634955639975E-01
C42  4.553733299248E-01  1.993618846677E-01  3.650443600245E-02
C43  4.553733299248E-01  3.006381153323E-01 -4.634955639975E-01
C44 -4.553733299248E-01 -1.993618846677E-01 -3.650443600245E-02
H45 -4.207898830974E-01 -1.465069026551E-01  4.349974703138E-01
H46  4.207898830974E-01  3.534930973449E-01  6.500252968622E-02
H47  4.207898830974E-01  1.465069026551E-01 -4.349974703138E-01
H48 -4.207898830974E-01 -3.534930973449E-01 -6.500252968622E-02


#===END

data_OPT_STEP_26

_symmetry_space_group_name_H-M 'P 1'
_cell_length_a      9.61898909
_cell_length_b      6.38209814
_cell_length_c      8.71745851
_cell_angle_alpha   90.000000
_cell_angle_beta  103.067319
_cell_angle_gamma   90.000000

loop_
_atom_site_label
_atom_site_fract_x
_atom_site_fract_y
_atom_site_fract_z
C1 -3.646381817859E-01 -4.214886304560E-01 -4.227699558529E-01
C2  3.646381817859E-01  7.851136954403E-02 -7.723004414710E-02
C3  3.646381817859E-01  4.214886304560E-01  4.227699558529E-01
C4 -3.646381817859E-01 -7.851136954403E-02  7.723004414710E-02
C5 -2.272557158651E-01 -3.490687134910E-01 -3.420001225784E-01
C6  2.272557158651E-01  1.509312865090E-01 -1.579998774216E-01
C7  2.272557158651E-01  3.490687134910E-01  3.420001225784E-01
C8 -2.272557158651E-01 -1.509312865090E-01  1.579998774216E-01
H9 -1.933498398022E-01 -1.945652143493E-01 -3.702129570458E-01
H10  1.933498398022E-01  3.054347856507E-01 -1.297870429542E-01
H11  1.933498398022E-01  1.945652143493E-01  3.702129570458E-01
H12 -1.933498398022E-01 -3.054347856507E-01  1.297870429542E-01
C13 -1.408024094046E-01 -4.702372728371E-01 -2.310252780746E-01
C14  1.408024094046E-01  2.976272716290E-02 -2.689747219254E-01
C15  1.408024094046E-01  4.702372728371E-01  2.310252780746E-01
C16 -1.408024094046E-01 -2.976272716290E-02  2.689747219254E-01
H17 -3.674745106164E-02 -4.123594447748E-01 -1.710239245751E-01
H18  3.674745106164E-02  8.764055522522E-02 -3.289760754249E-01
H19  3.674745106164E-02  4.123594447748E-01  1.710239245751E-01
H20 -3.674745106164E-02 -8.764055522522E-02  3.289760754249E-01
C21 -1.861963743829E-01  3.276519790709E-01 -1.936194891261E-01
C22  1.861963743829E-01 -1.723480209291E-01 -3.063805108739E-01
C23  1.861963743829E-01 -3.276519790709E-01  1.936194891261E-01
C24 -1.861963743829E-01  1.723480209291E-01  3.063805108739E-01
H25 -1.165178838458E-01  2.329023533660E-01 -1.052316453846E-01
H26  1.165178838458E-01 -2.670976466340E-01 -3.947683546154E-01
H27  1.165178838458E-01 -2.329023533660E-01  1.052316453846E-01
H28 -1.165178838458E-01  2.670976466340E-01  3.947683546154E-01
C29 -3.167330303395E-01  2.523084372522E-01 -2.684787329930E-01
C30  3.167330303395E-01 -2.476915627478E-01 -2.315212670070E-01
C31  3.167330303395E-01 -2.523084372522E-01  2.684787329930E-01
C32 -3.167330303395E-01  2.476915627478E-01  2.315212670070E-01
H33 -3.514545760420E-01  9.866545203807E-02 -2.396753642609E-01
H34  3.514545760420E-01 -4.013345479619E-01 -2.603246357391E-01
H35  3.514545760420E-01 -9.866545203807E-02  2.396753642609E-01
H36 -3.514545760420E-01  4.013345479619E-01  2.603246357391E-01
C37 -4.103625490799E-01  3.738100748757E-01 -3.852576322322E-01
C38  4.103625490799E-01 -1.261899251243E-01 -1.147423677678E-01
C39  4.103625490799E-01 -3.738100748757E-01  3.852576322322E-01
C40 -4.103625490799E-01  1.261899251243E-01  1.147423677678E-01
C41 -4.554100602116E-01 -3.006932880671E-01  4.633854932018E-01
C42  4.554100602116E-01  1.993067119329E-01  3.661450679817E-02
C43  4.554100602116E-01  3.006932880671E-01 -4.633854932018E-01
C44 -4.554100602116E-01 -1.993067119329E-01 -3.661450679817E-02
H45 -4.208545735551E-01 -1.466095059786E-01  4.347975340840E-01
H46  4.208545735551E-01  3.533904940214E-01  6.520246591598E-02
H47  4.208545735551E-01  1.466095059786E-01 -4.347975340840E-01
H48 -4.208545735551E-01 -3.533904940214E-01 -6.520246591598E-02


#===END

data_OPT_STEP_27

_symmetry_space_group_name_H-M 'P 1'
_cell_length_a      9.61441095
_cell_length_b      6.38576083
_cell_length_c      8.71393184
_cell_angle_alpha   90.000000
_cell_angle_beta  103.001968
_cell_angle_gamma   90.000000

loop_
_atom_site_label
_atom_site_fract_x
_atom_site_fract_y
_atom_site_fract_z
C1 -3.646306980135E-01 -4.213971985628E-01 -4.229832705306E-01
C2  3.646306980135E-01  7.860280143717E-02 -7.701672946940E-02
C3  3.646306980135E-01  4.213971985628E-01  4.229832705306E-01
C4 -3.646306980135E-01 -7.860280143717E-02  7.701672946940E-02
C5 -2.272320930586E-01 -3.488920998837E-01 -3.424311754127E-01
C6  2.272320930586E-01  1.511079001163E-01 -1.575688245873E-01
C7  2.272320930586E-01  3.488920998837E-01  3.424311754127E-01
C8 -2.272320930586E-01 -1.511079001163E-01  1.575688245873E-01
H9 -1.933369213804E-01 -1.945013756881E-01 -3.707933502576E-01
H10  1.933369213804E-01  3.054986243119E-01 -1.292066497424E-01
H11  1.933369213804E-01  1.945013756881E-01  3.707933502576E-01
H12 -1.933369213804E-01 -3.054986243119E-01  1.292066497424E-01
C13 -1.407107350491E-01 -4.698586158544E-01 -2.314680752386E-01
C14  1.407107350491E-01  3.014138414557E-02 -2.685319247614E-01
C15  1.407107350491E-01  4.698586158544E-01  2.314680752386E-01
C16 -1.407107350491E-01 -3.014138414557E-02  2.685319247614E-01
H17 -3.662524152011E-02 -4.119389315836E-01 -1.716675249386E-01
H18  3.662524152011E-02  8.806106841643E-02 -3.283324750614E-01
H19  3.662524152011E-02  4.119389315836E-01  1.716675249386E-01
H20 -3.662524152011E-02 -8.806106841643E-02  3.283324750614E-01
C21 -1.860480906124E-01  3.281610056342E-01 -1.938548401828E-01
C22  1.860480906124E-01 -1.718389943658E-01 -3.061451598172E-01
C23  1.860480906124E-01 -3.281610056342E-01  1.938548401828E-01
C24 -1.860480906124E-01  1.718389943658E-01  3.061451598172E-01
H25 -1.163151313173E-01  2.335821802436E-01 -1.054736253944E-01
H26  1.163151313173E-01 -2.664178197564E-01 -3.945263746056E-01
H27  1.163151313173E-01 -2.335821802436E-01  1.054736253944E-01
H28 -1.163151313173E-01  2.664178197564E-01  3.945263746056E-01
C29 -3.165957857612E-01  2.527298518191E-01 -2.685119942925E-01
C30  3.165957857612E-01 -2.472701481809E-01 -2.314880057075E-01
C31  3.165957857612E-01 -2.527298518191E-01  2.685119942925E-01
C32 -3.165957857612E-01  2.472701481809E-01  2.314880057075E-01
H33 -3.512777567764E-01  9.919265695174E-02 -2.395547602280E-01
H34  3.512777567764E-01 -4.008073430483E-01 -2.604452397720E-01
H35  3.512777567764E-01 -9.919265695174E-02  2.395547602280E-01
H36 -3.512777567764E-01  4.008073430483E-01  2.604452397720E-01
C37 -4.102904331157E-01  3.740174811147E-01 -3.852763427699E-01
C38  4.102904331157E-01 -1.259825188853E-01 -1.147236572301E-01
C39  4.102904331157E-01 -3.740174811147E-01  3.852763427699E-01
C40 -4.102904331157E-01  1.259825188853E-01  1.147236572301E-01
C41 -4.554718180654E-01 -3.008119779831E-01  4.631916043278E-01
C42  4.554718180654E-01  1.991880220169E-01  3.680839567217E-02
C43  4.554718180654E-01  3.008119779831E-01 -4.631916043278E-01
C44 -4.554718180654E-01 -1.991880220169E-01 -3.680839567217E-02
H45 -4.209611946036E-01 -1.468300755315E-01  4.344531489088E-01
H46  4.209611946036E-01  3.531699244685E-01  6.554685109117E-02
H47  4.209611946036E-01  1.468300755315E-01 -4.344531489088E-01
H48 -4.209611946036E-01 -3.531699244685E-01 -6.554685109117E-02


#===END

data_OPT_STEP_28

_symmetry_space_group_name_H-M 'P 1'
_cell_length_a      9.61730852
_cell_length_b      6.38187590
_cell_length_c      8.72447123
_cell_angle_alpha   90.000000
_cell_angle_beta  103.032439
_cell_angle_gamma   90.000000

loop_
_atom_site_label
_atom_site_fract_x
_atom_site_fract_y
_atom_site_fract_z
C1 -3.646279388510E-01 -4.212343277824E-01 -4.231797872943E-01
C2  3.646279388510E-01  7.876567221759E-02 -7.682021270567E-02
C3  3.646279388510E-01  4.212343277824E-01  4.231797872943E-01
C4 -3.646279388510E-01 -7.876567221759E-02  7.682021270567E-02
C5 -2.272279571883E-01 -3.485742796614E-01 -3.428160763415E-01
C6  2.272279571883E-01  1.514257203386E-01 -1.571839236585E-01
C7  2.272279571883E-01  3.485742796614E-01  3.428160763415E-01
C8 -2.272279571883E-01 -1.514257203386E-01  1.571839236585E-01
H9 -1.932897260440E-01 -1.943008702646E-01 -3.714568847609E-01
H10  1.932897260440E-01  3.056991297354E-01 -1.285431152391E-01
H11  1.932897260440E-01  1.943008702646E-01  3.714568847609E-01
H12 -1.932897260440E-01 -3.056991297354E-01  1.285431152391E-01
C13 -1.406459545435E-01 -4.694172663161E-01 -2.318581626001E-01
C14  1.406459545435E-01  3.058273368387E-02 -2.681418373999E-01
C15  1.406459545435E-01  4.694172663161E-01  2.318581626001E-01
C16 -1.406459545435E-01 -3.058273368387E-02  2.681418373999E-01
H17 -3.653942785399E-02 -4.114115031503E-01 -1.722751785522E-01
H18  3.653942785399E-02  8.858849684970E-02 -3.277248214478E-01
H19  3.653942785399E-02  4.114115031503E-01  1.722751785522E-01
H20 -3.653942785399E-02 -8.858849684970E-02  3.277248214478E-01
C21 -1.859517315504E-01  3.286281909401E-01 -1.940076677052E-01
C22  1.859517315504E-01 -1.713718090599E-01 -3.059923322948E-01
C23  1.859517315504E-01 -3.286281909401E-01  1.940076677052E-01
C24 -1.859517315504E-01  1.713718090599E-01  3.059923322948E-01
H25 -1.161842032317E-01  2.341459212881E-01 -1.056374124731E-01
H26  1.161842032317E-01 -2.658540787119E-01 -3.943625875269E-01
H27  1.161842032317E-01 -2.341459212881E-01  1.056374124731E-01
H28 -1.161842032317E-01  2.658540787119E-01  3.943625875269E-01
C29 -3.164952362210E-01  2.530533324073E-01 -2.684812493101E-01
C30  3.164952362210E-01 -2.469466675927E-01 -2.315187506899E-01
C31  3.164952362210E-01 -2.530533324073E-01  2.684812493101E-01
C32 -3.164952362210E-01  2.469466675927E-01  2.315187506899E-01
H33 -3.511002893626E-01  9.945551311856E-02 -2.394198931659E-01
H34  3.511002893626E-01 -4.005444868814E-01 -2.605801068341E-01
H35  3.511002893626E-01 -9.945551311856E-02  2.394198931659E-01
H36 -3.511002893626E-01  4.005444868814E-01  2.605801068341E-01
C37 -4.102469307256E-01  3.741921748379E-01 -3.852412903222E-01
C38  4.102469307256E-01 -1.258078251621E-01 -1.147587096778E-01
C39  4.102469307256E-01 -3.741921748379E-01  3.852412903222E-01
C40 -4.102469307256E-01  1.258078251621E-01  1.147587096778E-01
C41 -4.555283136489E-01 -3.007941002568E-01  4.629953511697E-01
C42  4.555283136489E-01  1.992058997432E-01  3.700464883033E-02
C43  4.555283136489E-01  3.007941002568E-01 -4.629953511697E-01
C44 -4.555283136489E-01 -1.992058997432E-01 -3.700464883033E-02
H45 -4.210656737997E-01 -1.468026129289E-01  4.340908263128E-01
H46  4.210656737997E-01  3.531973870711E-01  6.590917368720E-02
H47  4.210656737997E-01  1.468026129289E-01 -4.340908263128E-01
H48 -4.210656737997E-01 -3.531973870711E-01 -6.590917368720E-02


#===END

data_OPT_STEP_29

_symmetry_space_group_name_H-M 'P 1'
_cell_length_a      9.60366260
_cell_length_b      6.39060253
_cell_length_c      8.71583306
_cell_angle_alpha   90.000000
_cell_angle_beta  102.881049
_cell_angle_gamma   90.000000

loop_
_atom_site_label
_atom_site_fract_x
_atom_site_fract_y
_atom_site_fract_z
C1 -3.646459867019E-01 -4.211084810200E-01 -4.232708144267E-01
C2  3.646459867019E-01  7.889151898002E-02 -7.672918557333E-02
C3  3.646459867019E-01  4.211084810200E-01  4.232708144267E-01
C4 -3.646459867019E-01 -7.889151898002E-02  7.672918557333E-02
C5 -2.272421786239E-01 -3.483156620818E-01 -3.430395013884E-01
C6  2.272421786239E-01  1.516843379182E-01 -1.569604986116E-01
C7  2.272421786239E-01  3.483156620818E-01  3.430395013884E-01
C8 -2.272421786239E-01 -1.516843379182E-01  1.569604986116E-01
H9 -1.934620657007E-01 -1.940707617796E-01 -3.717222171887E-01
H10  1.934620657007E-01  3.059292382204E-01 -1.282777828113E-01
H11  1.934620657007E-01  1.940707617796E-01  3.717222171887E-01
H12 -1.934620657007E-01 -3.059292382204E-01  1.282777828113E-01
C13 -1.406140533455E-01 -4.689129261238E-01 -2.321507105846E-01
C14  1.406140533455E-01  3.108707387617E-02 -2.678492894154E-01
C15  1.406140533455E-01  4.689129261238E-01  2.321507105846E-01
C16 -1.406140533455E-01 -3.108707387617E-02  2.678492894154E-01
H17 -3.644974380238E-02 -4.109707931608E-01 -1.727147919347E-01
H18  3.644974380238E-02  8.902920683920E-02 -3.272852080653E-01
H19  3.644974380238E-02  4.109707931608E-01  1.727147919347E-01
H20 -3.644974380238E-02 -8.902920683920E-02  3.272852080653E-01
C21 -1.858621639707E-01  3.292579608437E-01 -1.942613153020E-01
C22  1.858621639707E-01 -1.707420391563E-01 -3.057386846980E-01
C23  1.858621639707E-01 -3.292579608437E-01  1.942613153020E-01
C24 -1.858621639707E-01  1.707420391563E-01  3.057386846980E-01
H25 -1.160251201672E-01  2.349836578023E-01 -1.059574603786E-01
H26  1.160251201672E-01 -2.650163421977E-01 -3.940425396214E-01
H27  1.160251201672E-01 -2.349836578023E-01  1.059574603786E-01
H28 -1.160251201672E-01  2.650163421977E-01  3.940425396214E-01
C29 -3.164084912598E-01  2.535946135481E-01 -2.685752856446E-01
C30  3.164084912598E-01 -2.464053864519E-01 -2.314247143554E-01
C31  3.164084912598E-01 -2.535946135481E-01  2.685752856446E-01
C32 -3.164084912598E-01  2.464053864519E-01  2.314247143554E-01
H33 -3.510235493040E-01  1.001691301802E-01 -2.394238617129E-01
H34  3.510235493040E-01 -3.998308698198E-01 -2.605761382871E-01
H35  3.510235493040E-01 -1.001691301802E-01  2.394238617129E-01
H36 -3.510235493040E-01  3.998308698198E-01  2.605761382871E-01
C37 -4.102005867837E-01  3.744607539137E-01 -3.852910089620E-01
C38  4.102005867837E-01 -1.255392460863E-01 -1.147089910380E-01
C39  4.102005867837E-01 -3.744607539137E-01  3.852910089620E-01
C40 -4.102005867837E-01  1.255392460863E-01  1.147089910380E-01
C41 -4.555765892354E-01 -3.009632579521E-01  4.629216086769E-01
C42  4.555765892354E-01  1.990367420479E-01  3.707839132307E-02
C43  4.555765892354E-01  3.009632579521E-01 -4.629216086769E-01
C44 -4.555765892354E-01 -1.990367420479E-01 -3.707839132307E-02
H45 -4.211382255351E-01 -1.471032330126E-01  4.339628085597E-01
H46  4.211382255351E-01  3.528967669874E-01  6.603719144034E-02
H47  4.211382255351E-01  1.471032330126E-01 -4.339628085597E-01
H48 -4.211382255351E-01 -3.528967669874E-01 -6.603719144034E-02


#===END

data_OPT_STEP_30

_symmetry_space_group_name_H-M 'P 1'
_cell_length_a      9.61369433
_cell_length_b      6.38333207
_cell_length_c      8.72173279
_cell_angle_alpha   90.000000
_cell_angle_beta  102.990291
_cell_angle_gamma   90.000000

loop_
_atom_site_label
_atom_site_fract_x
_atom_site_fract_y
_atom_site_fract_z
C1 -3.646329041585E-01 -4.211960129396E-01 -4.231968025267E-01
C2  3.646329041585E-01  7.880398706036E-02 -7.680319747328E-02
C3  3.646329041585E-01  4.211960129396E-01  4.231968025267E-01
C4 -3.646329041585E-01 -7.880398706036E-02  7.680319747328E-02
C5 -2.272307687648E-01 -3.484915540025E-01 -3.428667450280E-01
C6  2.272307687648E-01  1.515084459975E-01 -1.571332549720E-01
C7  2.272307687648E-01  3.484915540025E-01  3.428667450280E-01
C8 -2.272307687648E-01 -1.515084459975E-01  1.571332549720E-01
H9 -1.933721470599E-01 -1.941538940856E-01 -3.714902982584E-01
H10  1.933721470599E-01  3.058461059144E-01 -1.285097017416E-01
H11  1.933721470599E-01  1.941538940856E-01  3.714902982584E-01
H12 -1.933721470599E-01 -3.058461059144E-01  1.285097017416E-01
C13 -1.406491633033E-01 -4.692843830978E-01 -2.319147289938E-01
C14  1.406491633033E-01  3.071561690218E-02 -2.680852710062E-01
C15  1.406491633033E-01  4.692843830978E-01  2.319147289938E-01
C16 -1.406491633033E-01 -3.071561690218E-02  2.680852710062E-01
H17 -3.652507823199E-02 -4.113023041690E-01 -1.723501271345E-01
H18  3.652507823199E-02  8.869769583098E-02 -3.276498728655E-01
H19  3.652507823199E-02  4.113023041690E-01  1.723501271345E-01
H20 -3.652507823199E-02 -8.869769583098E-02  3.276498728655E-01
C21 -1.859446828348E-01  3.287558063224E-01 -1.940547535158E-01
C22  1.859446828348E-01 -1.712441936776E-01 -3.059452464842E-01
C23  1.859446828348E-01 -3.287558063224E-01  1.940547535158E-01
C24 -1.859446828348E-01  1.712441936776E-01  3.059452464842E-01
H25 -1.161582481168E-01  2.343282244543E-01 -1.056868456630E-01
H26  1.161582481168E-01 -2.656717755457E-01 -3.943131543370E-01
H27  1.161582481168E-01 -2.343282244543E-01  1.056868456630E-01
H28 -1.161582481168E-01  2.656717755457E-01  3.943131543370E-01
C29 -3.164897794221E-01  2.531482451115E-01 -2.684818308071E-01
C30  3.164897794221E-01 -2.468517548885E-01 -2.315181691929E-01
C31  3.164897794221E-01 -2.531482451115E-01  2.684818308071E-01
C32 -3.164897794221E-01  2.468517548885E-01  2.315181691929E-01
H33 -3.511196303940E-01  9.959484077336E-02 -2.393758695930E-01
H34  3.511196303940E-01 -4.004051592266E-01 -2.606241304070E-01
H35  3.511196303940E-01 -9.959484077336E-02  2.393758695930E-01
H36 -3.511196303940E-01  4.004051592266E-01  2.606241304070E-01
C37 -4.102391066435E-01  3.742306383514E-01 -3.852522391265E-01
C38  4.102391066435E-01 -1.257693616486E-01 -1.147477608735E-01
C39  4.102391066435E-01 -3.742306383514E-01  3.852522391265E-01
C40 -4.102391066435E-01  1.257693616486E-01  1.147477608735E-01
C41 -4.555305417162E-01 -3.008150453790E-01  4.629676182102E-01
C42  4.555305417162E-01  1.991849546210E-01  3.703238178977E-02
C43  4.555305417162E-01  3.008150453790E-01 -4.629676182102E-01
C44 -4.555305417162E-01 -1.991849546210E-01 -3.703238178977E-02
H45 -4.210649549865E-01 -1.468385278478E-01  4.340471632472E-01
H46  4.210649549865E-01  3.531614721522E-01  6.595283675284E-02
H47  4.210649549865E-01  1.468385278478E-01 -4.340471632472E-01
H48 -4.210649549865E-01 -3.531614721522E-01 -6.595283675284E-02


#===END

data_OPT_STEP_31

_symmetry_space_group_name_H-M 'P 1'
_cell_length_a      9.61423081
_cell_length_b      6.38010784
_cell_length_c      8.71983464
_cell_angle_alpha   90.000000
_cell_angle_beta  102.977494
_cell_angle_gamma   90.000000

loop_
_atom_site_label
_atom_site_fract_x
_atom_site_fract_y
_atom_site_fract_z
C1 -3.646334054798E-01 -4.211684615243E-01 -4.232767541133E-01
C2  3.646334054798E-01  7.883153847570E-02 -7.672324588665E-02
C3  3.646334054798E-01  4.211684615243E-01  4.232767541133E-01
C4 -3.646334054798E-01 -7.883153847570E-02  7.672324588665E-02
C5 -2.272243095534E-01 -3.484222186672E-01 -3.430353667352E-01
C6  2.272243095534E-01  1.515777813328E-01 -1.569646332648E-01
C7  2.272243095534E-01  3.484222186672E-01  3.430353667352E-01
C8 -2.272243095534E-01 -1.515777813328E-01  1.569646332648E-01
H9 -1.934404149533E-01 -1.939574845520E-01 -3.716960334430E-01
H10  1.934404149533E-01  3.060425154480E-01 -1.283039665570E-01
H11  1.934404149533E-01  1.939574845520E-01  3.716960334430E-01
H12 -1.934404149533E-01 -3.060425154480E-01  1.283039665570E-01
C13 -1.406619897419E-01 -4.692155608459E-01 -2.320357654919E-01
C14  1.406619897419E-01  3.078443915406E-02 -2.679642345081E-01
C15  1.406619897419E-01  4.692155608459E-01  2.320357654919E-01
C16 -1.406619897419E-01 -3.078443915406E-02  2.679642345081E-01
H17 -3.654192653116E-02 -4.112048370999E-01 -1.724703889273E-01
H18  3.654192653116E-02  8.879516290005E-02 -3.275296110727E-01
H19  3.654192653116E-02  4.112048370999E-01  1.724703889273E-01
H20 -3.654192653116E-02 -8.879516290005E-02  3.275296110727E-01
C21 -1.859707225421E-01  3.287687937807E-01 -1.940570003107E-01
C22  1.859707225421E-01 -1.712312062193E-01 -3.059429996893E-01
C23  1.859707225421E-01 -3.287687937807E-01  1.940570003107E-01
C24 -1.859707225421E-01  1.712312062193E-01  3.059429996893E-01
H25 -1.161666997320E-01  2.343832674163E-01 -1.056316793511E-01
H26  1.161666997320E-01 -2.656167325837E-01 -3.943683206489E-01
H27  1.161666997320E-01 -2.343832674163E-01  1.056316793511E-01
H28 -1.161666997320E-01  2.656167325837E-01  3.943683206489E-01
C29 -3.165108694552E-01  2.531011058979E-01 -2.684089429392E-01
C30  3.165108694552E-01 -2.468988941021E-01 -2.315910570608E-01
C31  3.165108694552E-01 -2.531011058979E-01  2.684089429392E-01
C32 -3.165108694552E-01  2.468988941021E-01  2.315910570608E-01
H33 -3.511665528214E-01  9.953188583010E-02 -2.391877290736E-01
H34  3.511665528214E-01 -4.004681141699E-01 -2.608122709264E-01
H35  3.511665528214E-01 -9.953188583010E-02  2.391877290736E-01
H36 -3.511665528214E-01  4.004681141699E-01  2.608122709264E-01
C37 -4.102473692019E-01  3.741932160523E-01 -3.852283852559E-01
C38  4.102473692019E-01 -1.258067839477E-01 -1.147716147441E-01
C39  4.102473692019E-01 -3.741932160523E-01  3.852283852559E-01
C40 -4.102473692019E-01  1.258067839477E-01  1.147716147441E-01
C41 -4.555193410221E-01 -3.007558956083E-01  4.628596662465E-01
C42  4.555193410221E-01  1.992441043917E-01  3.714033375353E-02
C43  4.555193410221E-01  3.007558956083E-01 -4.628596662465E-01
C44 -4.555193410221E-01 -1.992441043917E-01 -3.714033375353E-02
H45 -4.210448393107E-01 -1.467250979492E-01  4.338718793198E-01
H46  4.210448393107E-01  3.532749020508E-01  6.612812068023E-02
H47  4.210448393107E-01  1.467250979492E-01 -4.338718793198E-01
H48 -4.210448393107E-01 -3.532749020508E-01 -6.612812068023E-02


#===END

data_OPT_STEP_32

_symmetry_space_group_name_H-M 'P 1'
_cell_length_a      9.61193671
_cell_length_b      6.37880335
_cell_length_c      8.72173493
_cell_angle_alpha   90.000000
_cell_angle_beta  102.936614
_cell_angle_gamma   90.000000

loop_
_atom_site_label
_atom_site_fract_x
_atom_site_fract_y
_atom_site_fract_z
C1 -3.646737539959E-01 -4.209857486565E-01 -4.234017757158E-01
C2  3.646737539959E-01  7.901425134347E-02 -7.659822428415E-02
C3  3.646737539959E-01  4.209857486565E-01  4.234017757158E-01
C4 -3.646737539959E-01 -7.901425134347E-02  7.659822428415E-02
C5 -2.272847032736E-01 -3.480501442041E-01 -3.433181531737E-01
C6  2.272847032736E-01  1.519498557959E-01 -1.566818468263E-01
C7  2.272847032736E-01  3.480501442041E-01  3.433181531737E-01
C8 -2.272847032736E-01 -1.519498557959E-01  1.566818468263E-01
H9 -1.936135617064E-01 -1.935475547698E-01 -3.721405094689E-01
H10  1.936135617064E-01  3.064524452302E-01 -1.278594905311E-01
H11  1.936135617064E-01  1.935475547698E-01  3.721405094689E-01
H12 -1.936135617064E-01 -3.064524452302E-01  1.278594905311E-01
C13 -1.406881577925E-01 -4.687103001854E-01 -2.323284053684E-01
C14  1.406881577925E-01  3.128969981465E-02 -2.676715946316E-01
C15  1.406881577925E-01  4.687103001854E-01  2.323284053684E-01
C16 -1.406881577925E-01 -3.128969981465E-02  2.676715946316E-01
H17 -3.655711103965E-02 -4.106531347574E-01 -1.729022139214E-01
H18  3.655711103965E-02  8.934686524255E-02 -3.270977860786E-01
H19  3.655711103965E-02  4.106531347574E-01  1.729022139214E-01
H20 -3.655711103965E-02 -8.934686524255E-02  3.270977860786E-01
C21 -1.859398528338E-01  3.292343826162E-01 -1.942131253328E-01
C22  1.859398528338E-01 -1.707656173838E-01 -3.057868746672E-01
C23  1.859398528338E-01 -3.292343826162E-01  1.942131253328E-01
C24 -1.859398528338E-01  1.707656173838E-01  3.057868746672E-01
H25 -1.160834681534E-01  2.349627742761E-01 -1.058072615620E-01
H26  1.160834681534E-01 -2.650372257239E-01 -3.941927384380E-01
H27  1.160834681534E-01 -2.349627742761E-01  1.058072615620E-01
H28 -1.160834681534E-01  2.650372257239E-01  3.941927384380E-01
C29 -3.164557314500E-01  2.534012346566E-01 -2.684075786561E-01
C30  3.164557314500E-01 -2.465987653434E-01 -2.315924213439E-01
C31  3.164557314500E-01 -2.534012346566E-01  2.684075786561E-01
C32 -3.164557314500E-01  2.465987653434E-01  2.315924213439E-01
H33 -3.510784165034E-01  9.982201993509E-02 -2.390666537493E-01
H34  3.510784165034E-01 -4.001779800649E-01 -2.609333462507E-01
H35  3.510784165034E-01 -9.982201993509E-02  2.390666537493E-01
H36 -3.510784165034E-01  4.001779800649E-01  2.609333462507E-01
C37 -4.102256989777E-01  3.743512780272E-01 -3.852147078135E-01
C38  4.102256989777E-01 -1.256487219728E-01 -1.147852921865E-01
C39  4.102256989777E-01 -3.743512780272E-01  3.852147078135E-01
C40 -4.102256989777E-01  1.256487219728E-01  1.147852921865E-01
C41 -4.555782991390E-01 -3.007310730648E-01  4.627227917079E-01
C42  4.555782991390E-01  1.992689269352E-01  3.727720829210E-02
C43  4.555782991390E-01  3.007310730648E-01 -4.627227917079E-01
C44 -4.555782991390E-01 -1.992689269352E-01 -3.727720829210E-02
H45 -4.211452336707E-01 -1.466725503325E-01  4.336377488894E-01
H46  4.211452336707E-01  3.533274496675E-01  6.636225111058E-02
H47  4.211452336707E-01  1.466725503325E-01 -4.336377488894E-01
H48 -4.211452336707E-01 -3.533274496675E-01 -6.636225111058E-02


#===END

data_OPT_STEP_33

_symmetry_space_group_name_H-M 'P 1'
_cell_length_a      9.61530133
_cell_length_b      6.37186626
_cell_length_c      8.72809483
_cell_angle_alpha   90.000000
_cell_angle_beta  102.905399
_cell_angle_gamma   90.000000

loop_
_atom_site_label
_atom_site_fract_x
_atom_site_fract_y
_atom_site_fract_z
C1 -3.647772045504E-01 -4.205883554847E-01 -4.237227080512E-01
C2  3.647772045504E-01  7.941164451529E-02 -7.627729194879E-02
C3  3.647772045504E-01  4.205883554847E-01  4.237227080512E-01
C4 -3.647772045504E-01 -7.941164451529E-02  7.627729194879E-02
C5 -2.274623018700E-01 -3.472417123559E-01 -3.440109099260E-01
C6  2.274623018700E-01  1.527582876441E-01 -1.559890900740E-01
C7  2.274623018700E-01  3.472417123559E-01  3.440109099260E-01
C8 -2.274623018700E-01 -1.527582876441E-01  1.559890900740E-01
H9 -1.940144989923E-01 -1.926172509846E-01 -3.732031435403E-01
H10  1.940144989923E-01  3.073827490154E-01 -1.267968564597E-01
H11  1.940144989923E-01  1.926172509846E-01  3.732031435403E-01
H12 -1.940144989923E-01 -3.073827490154E-01  1.267968564597E-01
C13 -1.407760325770E-01 -4.676509400604E-01 -2.330057668884E-01
C14  1.407760325770E-01  3.234905993960E-02 -2.669942331116E-01
C15  1.407760325770E-01  4.676509400604E-01  2.330057668884E-01
C16 -1.407760325770E-01 -3.234905993960E-02  2.669942331116E-01
H17 -3.667547428921E-02 -4.093843315992E-01 -1.738751011569E-01
H18  3.667547428921E-02  9.061566840080E-02 -3.261248988431E-01
H19  3.667547428921E-02  4.093843315992E-01  1.738751011569E-01
H20 -3.667547428921E-02 -9.061566840080E-02  3.261248988431E-01
C21 -1.858577822786E-01  3.301514916309E-01 -1.945043612231E-01
C22  1.858577822786E-01 -1.698485083691E-01 -3.054956387769E-01
C23  1.858577822786E-01 -3.301514916309E-01  1.945043612231E-01
C24 -1.858577822786E-01  1.698485083691E-01  3.054956387769E-01
H25 -1.158840111877E-01  2.360833147783E-01 -1.061118135560E-01
H26  1.158840111877E-01 -2.639166852217E-01 -3.938881864440E-01
H27  1.158840111877E-01 -2.360833147783E-01  1.061118135560E-01
H28 -1.158840111877E-01  2.639166852217E-01  3.938881864440E-01
C29 -3.162910285383E-01  2.539233745241E-01 -2.683368994072E-01
C30  3.162910285383E-01 -2.460766254759E-01 -2.316631005928E-01
C31  3.162910285383E-01 -2.539233745241E-01  2.683368994072E-01
C32 -3.162910285383E-01  2.460766254759E-01  2.316631005928E-01
H33 -3.507730930939E-01  1.002268691816E-01 -2.387074971714E-01
H34  3.507730930939E-01 -3.997731308184E-01 -2.612925028286E-01
H35  3.507730930939E-01 -1.002268691816E-01  2.387074971714E-01
H36 -3.507730930939E-01  3.997731308184E-01  2.612925028286E-01
C37 -4.101528176836E-01  3.746173417664E-01 -3.851562125532E-01
C38  4.101528176836E-01 -1.253826582336E-01 -1.148437874468E-01
C39  4.101528176836E-01 -3.746173417664E-01  3.851562125532E-01
C40 -4.101528176836E-01  1.253826582336E-01  1.148437874468E-01
C41 -4.557464987775E-01 -3.006008190494E-01  4.623590428819E-01
C42  4.557464987775E-01  1.993991809506E-01  3.764095711811E-02
C43  4.557464987775E-01  3.006008190494E-01 -4.623590428819E-01
C44 -4.557464987775E-01 -1.993991809506E-01 -3.764095711811E-02
H45 -4.214427325305E-01 -1.464194798472E-01  4.330199527126E-01
H46  4.214427325305E-01  3.535805201528E-01  6.698004728742E-02
H47  4.214427325305E-01  1.464194798472E-01 -4.330199527126E-01
H48 -4.214427325305E-01 -3.535805201528E-01 -6.698004728742E-02


#===END

data_OPT_STEP_34

_symmetry_space_group_name_H-M 'P 1'
_cell_length_a      9.62272477
_cell_length_b      6.36876589
_cell_length_c      8.72992215
_cell_angle_alpha   90.000000
_cell_angle_beta  102.943956
_cell_angle_gamma   90.000000

loop_
_atom_site_label
_atom_site_fract_x
_atom_site_fract_y
_atom_site_fract_z
C1 -3.648539020316E-01 -4.205151364663E-01 -4.236957716120E-01
C2  3.648539020316E-01  7.948486353367E-02 -7.630422838796E-02
C3  3.648539020316E-01  4.205151364663E-01  4.236957716120E-01
C4 -3.648539020316E-01 -7.948486353367E-02  7.630422838796E-02
C5 -2.276169060281E-01 -3.470889040182E-01 -3.439553779627E-01
C6  2.276169060281E-01  1.529110959818E-01 -1.560446220373E-01
C7  2.276169060281E-01  3.470889040182E-01  3.439553779627E-01
C8 -2.276169060281E-01 -1.529110959818E-01  1.560446220373E-01
H9 -1.942377393967E-01 -1.923863981805E-01 -3.731555369464E-01
H10  1.942377393967E-01  3.076136018195E-01 -1.268444630536E-01
H11  1.942377393967E-01  1.923863981805E-01  3.731555369464E-01
H12 -1.942377393967E-01 -3.076136018195E-01  1.268444630536E-01
C13 -1.409317239999E-01 -4.675324751353E-01 -2.329384615368E-01
C14  1.409317239999E-01  3.246752486466E-02 -2.670615384632E-01
C15  1.409317239999E-01  4.675324751353E-01  2.329384615368E-01
C16 -1.409317239999E-01 -3.246752486466E-02  2.670615384632E-01
H17 -3.690096555263E-02 -4.091986512894E-01 -1.737739198792E-01
H18  3.690096555263E-02  9.080134871063E-02 -3.262260801208E-01
H19  3.690096555263E-02  4.091986512894E-01  1.737739198792E-01
H20 -3.690096555263E-02 -9.080134871063E-02  3.262260801208E-01
C21 -1.859374125388E-01  3.301557262892E-01 -1.944658250955E-01
C22  1.859374125388E-01 -1.698442737108E-01 -3.055341749045E-01
C23  1.859374125388E-01 -3.301557262892E-01  1.944658250955E-01
C24 -1.859374125388E-01  1.698442737108E-01  3.055341749045E-01
H25 -1.159790493774E-01  2.360545029938E-01 -1.060579870043E-01
H26  1.159790493774E-01 -2.639454970062E-01 -3.939420129957E-01
H27  1.159790493774E-01 -2.360545029938E-01  1.060579870043E-01
H28 -1.159790493774E-01  2.639454970062E-01  3.939420129957E-01
C29 -3.162958494668E-01  2.538570177388E-01 -2.683278944862E-01
C30  3.162958494668E-01 -2.461429822612E-01 -2.316721055138E-01
C31  3.162958494668E-01 -2.538570177388E-01  2.683278944862E-01
C32 -3.162958494668E-01  2.461429822612E-01  2.316721055138E-01
H33 -3.507136241201E-01  1.000741148839E-01 -2.387112588799E-01
H34  3.507136241201E-01 -3.999258851161E-01 -2.612887411201E-01
H35  3.507136241201E-01 -1.000741148839E-01  2.387112588799E-01
H36 -3.507136241201E-01  3.999258851161E-01  2.612887411201E-01
C37 -4.101560644439E-01  3.745847106342E-01 -3.851468213216E-01
C38  4.101560644439E-01 -1.254152893658E-01 -1.148531786784E-01
C39  4.101560644439E-01 -3.745847106342E-01  3.851468213216E-01
C40 -4.101560644439E-01  1.254152893658E-01  1.148531786784E-01
C41 -4.558189894890E-01 -3.004930937391E-01  4.623795039544E-01
C42  4.558189894890E-01  1.995069062609E-01  3.762049604558E-02
C43  4.558189894890E-01  3.004930937391E-01 -4.623795039544E-01
C44 -4.558189894890E-01 -1.995069062609E-01 -3.762049604557E-02
H45 -4.215708881010E-01 -1.462262209982E-01  4.330564310277E-01
H46  4.215708881010E-01  3.537737790018E-01  6.694356897235E-02
H47  4.215708881010E-01  1.462262209982E-01 -4.330564310277E-01
H48 -4.215708881010E-01 -3.537737790018E-01 -6.694356897235E-02


#===END

data_OPT_STEP_35

_symmetry_space_group_name_H-M 'P 1'
_cell_length_a      9.64310042
_cell_length_b      6.36379063
_cell_length_c      8.72776319
_cell_angle_alpha   90.000000
_cell_angle_beta  102.980127
_cell_angle_gamma   90.000000

loop_
_atom_site_label
_atom_site_fract_x
_atom_site_fract_y
_atom_site_fract_z
C1 -3.651050511463E-01 -4.202096541575E-01 -4.238583820771E-01
C2  3.651050511463E-01  7.979034584255E-02 -7.614161792286E-02
C3  3.651050511463E-01  4.202096541575E-01  4.238583820771E-01
C4 -3.651050511463E-01 -7.979034584255E-02  7.614161792286E-02
C5 -2.281255663195E-01 -3.464729825478E-01 -3.442577975033E-01
C6  2.281255663195E-01  1.535270174522E-01 -1.557422024967E-01
C7  2.281255663195E-01  3.464729825478E-01  3.442577975033E-01
C8 -2.281255663195E-01 -1.535270174522E-01  1.557422024967E-01
H9 -1.949538523262E-01 -1.916773387945E-01 -3.736403726835E-01
H10  1.949538523262E-01  3.083226612055E-01 -1.263596273165E-01
H11  1.949538523262E-01  1.916773387945E-01  3.736403726835E-01
H12 -1.949538523262E-01 -3.083226612055E-01  1.263596273165E-01
C13 -1.413815097070E-01 -4.668022401465E-01 -2.331977764624E-01
C14  1.413815097070E-01  3.319775985353E-02 -2.668022235376E-01
C15  1.413815097070E-01  4.668022401465E-01  2.331977764624E-01
C16 -1.413815097070E-01 -3.319775985353E-02  2.668022235376E-01
H17 -3.757477678949E-02 -4.081886486635E-01 -1.741295301225E-01
H18  3.757477678949E-02  9.181135133646E-02 -3.258704698775E-01
H19  3.757477678949E-02  4.081886486635E-01  1.741295301225E-01
H20 -3.757477678949E-02 -9.181135133646E-02  3.258704698775E-01
C21 -1.860736861959E-01  3.307127675136E-01 -1.945481633750E-01
C22  1.860736861959E-01 -1.692872324864E-01 -3.054518366250E-01
C23  1.860736861959E-01 -3.307127675136E-01  1.945481633750E-01
C24 -1.860736861959E-01  1.692872324864E-01  3.054518366250E-01
H25 -1.161058546770E-01  2.366869302425E-01 -1.061023447009E-01
H26  1.161058546770E-01 -2.633130697575E-01 -3.938976552991E-01
H27  1.161058546770E-01 -2.366869302425E-01  1.061023447009E-01
H28 -1.161058546770E-01  2.633130697575E-01  3.938976552991E-01
C29 -3.161777176673E-01  2.541203976231E-01 -2.682765826316E-01
C30  3.161777176673E-01 -2.458796023769E-01 -2.317234173684E-01
C31  3.161777176673E-01 -2.541203976231E-01  2.682765826316E-01
C32 -3.161777176673E-01  2.458796023769E-01  2.317234173684E-01
H33 -3.503197730559E-01  1.001697203540E-01 -2.385378090396E-01
H34  3.503197730559E-01 -3.998302796460E-01 -2.614621909604E-01
H35  3.503197730559E-01 -1.001697203540E-01  2.385378090396E-01
H36 -3.503197730559E-01  3.998302796460E-01  2.614621909604E-01
C37 -4.100948819334E-01  3.747113945443E-01 -3.851102541138E-01
C38  4.100948819334E-01 -1.252886054557E-01 -1.148897458862E-01
C39  4.100948819334E-01 -3.747113945443E-01  3.851102541138E-01
C40 -4.100948819334E-01  1.252886054557E-01  1.148897458862E-01
C41 -4.561350842021E-01 -3.002996697712E-01  4.622002175557E-01
C42  4.561350842021E-01  1.997003302288E-01  3.779978244428E-02
C43  4.561350842021E-01  3.002996697712E-01 -4.622002175557E-01
C44 -4.561350842021E-01 -1.997003302288E-01 -3.779978244428E-02
H45 -4.221306899533E-01 -1.458920594427E-01  4.327264686023E-01
H46  4.221306899533E-01  3.541079405573E-01  6.727353139774E-02
H47  4.221306899533E-01  1.458920594427E-01 -4.327264686023E-01
H48 -4.221306899533E-01 -3.541079405573E-01 -6.727353139774E-02


#===END

data_OPT_STEP_36

_symmetry_space_group_name_H-M 'P 1'
_cell_length_a      9.66040617
_cell_length_b      6.36213498
_cell_length_c      8.72244990
_cell_angle_alpha   90.000000
_cell_angle_beta  102.945681
_cell_angle_gamma   90.000000

loop_
_atom_site_label
_atom_site_fract_x
_atom_site_fract_y
_atom_site_fract_z
C1 -3.653869824281E-01 -4.197966039764E-01 -4.242157215629E-01
C2  3.653869824281E-01  8.020339602361E-02 -7.578427843708E-02
C3  3.653869824281E-01  4.197966039764E-01  4.242157215629E-01
C4 -3.653869824281E-01 -8.020339602361E-02  7.578427843708E-02
C5 -2.286896394719E-01 -3.456440620165E-01 -3.449642099170E-01
C6  2.286896394719E-01  1.543559379835E-01 -1.550357900830E-01
C7  2.286896394719E-01  3.456440620165E-01  3.449642099170E-01
C8 -2.286896394719E-01 -1.543559379835E-01  1.550357900830E-01
H9 -1.957688839395E-01 -1.908340606181E-01 -3.746689685641E-01
H10  1.957688839395E-01  3.091659393819E-01 -1.253310314359E-01
H11  1.957688839395E-01  1.908340606181E-01  3.746689685641E-01
H12 -1.957688839395E-01 -3.091659393819E-01  1.253310314359E-01
C13 -1.418572339583E-01 -4.656359679993E-01 -2.338552739711E-01
C14  1.418572339583E-01  3.436403200071E-02 -2.661447260289E-01
C15  1.418572339583E-01  4.656359679993E-01  2.338552739711E-01
C16 -1.418572339583E-01 -3.436403200071E-02  2.661447260289E-01
H17 -3.826940838482E-02 -4.066943667925E-01 -1.750707944604E-01
H18  3.826940838482E-02  9.330563320745E-02 -3.249292055396E-01
H19  3.826940838482E-02  4.066943667925E-01  1.750707944604E-01
H20 -3.826940838482E-02 -9.330563320745E-02  3.249292055396E-01
C21 -1.861810147138E-01  3.318254735072E-01 -1.948021759254E-01
C22  1.861810147138E-01 -1.681745264928E-01 -3.051978240746E-01
C23  1.861810147138E-01 -3.318254735072E-01  1.948021759254E-01
C24 -1.861810147138E-01  1.681745264928E-01  3.051978240746E-01
H25 -1.161768076525E-01  2.380576692347E-01 -1.063119426277E-01
H26  1.161768076525E-01 -2.619423307653E-01 -3.936880573723E-01
H27  1.161768076525E-01 -2.380576692347E-01  1.063119426277E-01
H28 -1.161768076525E-01  2.619423307653E-01  3.936880573723E-01
C29 -3.160117602278E-01  2.548342240406E-01 -2.681961221832E-01
C30  3.160117602278E-01 -2.451657759594E-01 -2.318038778168E-01
C31  3.160117602278E-01 -2.548342240406E-01  2.681961221832E-01
C32 -3.160117602278E-01  2.451657759594E-01  2.318038778168E-01
H33 -3.498508882105E-01  1.008223978510E-01 -2.381697021484E-01
H34  3.498508882105E-01 -3.991776021490E-01 -2.618302978516E-01
H35  3.498508882105E-01 -1.008223978510E-01  2.381697021484E-01
H36 -3.498508882105E-01  3.991776021490E-01  2.618302978516E-01
C37 -4.100041204678E-01  3.750568996708E-01 -3.850679639753E-01
C38  4.100041204678E-01 -1.249431003292E-01 -1.149320360247E-01
C39  4.100041204678E-01 -3.750568996708E-01  3.850679639753E-01
C40 -4.100041204678E-01  1.249431003292E-01  1.149320360247E-01
C41 -4.565034184269E-01 -3.002313257849E-01  4.618148218002E-01
C42  4.565034184269E-01  1.997686742151E-01  3.818517819980E-02
C43  4.565034184269E-01  3.002313257849E-01 -4.618148218002E-01
C44 -4.565034184269E-01 -1.997686742151E-01 -3.818517819980E-02
H45 -4.227889501557E-01 -1.457763440636E-01  4.320423347069E-01
H46  4.227889501557E-01  3.542236559364E-01  6.795766529312E-02
H47  4.227889501557E-01  1.457763440636E-01 -4.320423347069E-01
H48 -4.227889501557E-01 -3.542236559364E-01 -6.795766529312E-02


#===END

data_OPT_STEP_37

_symmetry_space_group_name_H-M 'P 1'
_cell_length_a      9.67359367
_cell_length_b      6.36283546
_cell_length_c      8.71397934
_cell_angle_alpha   90.000000
_cell_angle_beta  102.834290
_cell_angle_gamma   90.000000

loop_
_atom_site_label
_atom_site_fract_x
_atom_site_fract_y
_atom_site_fract_z
C1 -3.656989919348E-01 -4.192808697079E-01 -4.247270145264E-01
C2  3.656989919348E-01  8.071913029210E-02 -7.527298547364E-02
C3  3.656989919348E-01  4.192808697079E-01  4.247270145264E-01
C4 -3.656989919348E-01 -8.071913029210E-02  7.527298547364E-02
C5 -2.293071137840E-01 -3.446031549856E-01 -3.459825547158E-01
C6  2.293071137840E-01  1.553968450144E-01 -1.540174452842E-01
C7  2.293071137840E-01  3.446031549856E-01  3.459825547158E-01
C8 -2.293071137840E-01 -1.553968450144E-01  1.540174452842E-01
H9 -1.966802929492E-01 -1.898085584167E-01 -3.760904710044E-01
H10  1.966802929492E-01  3.101914415833E-01 -1.239095289956E-01
H11  1.966802929492E-01  1.898085584167E-01  3.760904710044E-01
H12 -1.966802929492E-01 -3.101914415833E-01  1.239095289956E-01
C13 -1.423654919518E-01 -4.640873730860E-01 -2.348395864972E-01
C14  1.423654919518E-01  3.591262691400E-02 -2.651604135028E-01
C15  1.423654919518E-01  4.640873730860E-01  2.348395864972E-01
C16 -1.423654919518E-01 -3.591262691400E-02  2.651604135028E-01
H17 -3.901315403224E-02 -4.047440753966E-01 -1.764518787126E-01
H18  3.901315403224E-02  9.525592460339E-02 -3.235481212874E-01
H19  3.901315403224E-02  4.047440753966E-01  1.764518787126E-01
H20 -3.901315403224E-02 -9.525592460339E-02  3.235481212874E-01
C21 -1.862650859890E-01  3.333776570506E-01 -1.952378733864E-01
C22  1.862650859890E-01 -1.666223429494E-01 -3.047621266136E-01
C23  1.862650859890E-01 -3.333776570506E-01  1.952378733864E-01
C24 -1.862650859890E-01  1.666223429494E-01  3.047621266136E-01
H25 -1.161839835848E-01  2.399947345057E-01 -1.067341246944E-01
H26  1.161839835848E-01 -2.600052654943E-01 -3.932658753056E-01
H27  1.161839835848E-01 -2.399947345057E-01  1.067341246944E-01
H28 -1.161839835848E-01  2.600052654943E-01  3.932658753056E-01
C29 -3.157992058702E-01  2.558809751720E-01 -2.681381081612E-01
C30  3.157992058702E-01 -2.441190248280E-01 -2.318618918388E-01
C31  3.157992058702E-01 -2.558809751720E-01  2.681381081612E-01
C32 -3.157992058702E-01  2.441190248280E-01  2.318618918388E-01
H33 -3.493101559901E-01  1.018627338216E-01 -2.377131355119E-01
H34  3.493101559901E-01 -3.981372661784E-01 -2.622868644881E-01
H35  3.493101559901E-01 -1.018627338216E-01  2.377131355119E-01
H36 -3.493101559901E-01  3.981372661784E-01  2.622868644881E-01
C37 -4.098900623335E-01  3.755680848101E-01 -3.850340846681E-01
C38  4.098900623335E-01 -1.244319151899E-01 -1.149659153319E-01
C39  4.098900623335E-01 -3.755680848101E-01  3.850340846681E-01
C40 -4.098900623335E-01  1.244319151899E-01  1.149659153319E-01
C41 -4.569179002723E-01 -3.002352621996E-01  4.612785346396E-01
C42  4.569179002723E-01  1.997647378004E-01  3.872146536044E-02
C43  4.569179002723E-01  3.002352621996E-01 -4.612785346396E-01
C44 -4.569179002723E-01 -1.997647378004E-01 -3.872146536044E-02
H45 -4.235294876621E-01 -1.457831845119E-01  4.311020405201E-01
H46  4.235294876621E-01  3.542168154881E-01  6.889795947990E-02
H47  4.235294876621E-01  1.457831845119E-01 -4.311020405201E-01
H48 -4.235294876621E-01 -3.542168154881E-01 -6.889795947990E-02


#===END

data_OPT_STEP_38

_symmetry_space_group_name_H-M 'P 1'
_cell_length_a      9.67233214
_cell_length_b      6.36522807
_cell_length_c      8.71175848
_cell_angle_alpha   90.000000
_cell_angle_beta  102.744012
_cell_angle_gamma   90.000000

loop_
_atom_site_label
_atom_site_fract_x
_atom_site_fract_y
_atom_site_fract_z
C1 -3.658036843630E-01 -4.190801515408E-01 -4.249367118583E-01
C2  3.658036843630E-01  8.091984845920E-02 -7.506328814170E-02
C3  3.658036843630E-01  4.190801515408E-01  4.249367118583E-01
C4 -3.658036843630E-01 -8.091984845920E-02  7.506328814170E-02
C5 -2.295153777395E-01 -3.441937221133E-01 -3.464013911557E-01
C6  2.295153777395E-01  1.558062778867E-01 -1.535986088443E-01
C7  2.295153777395E-01  3.441937221133E-01  3.464013911557E-01
C8 -2.295153777395E-01 -1.558062778867E-01  1.535986088443E-01
H9 -1.969761137875E-01 -1.894325123437E-01 -3.766397687358E-01
H10  1.969761137875E-01  3.105674876563E-01 -1.233602312642E-01
H11  1.969761137875E-01  1.894325123437E-01  3.766397687358E-01
H12 -1.969761137875E-01 -3.105674876563E-01  1.233602312642E-01
C13 -1.425606386213E-01 -4.634216761505E-01 -2.352714302760E-01
C14  1.425606386213E-01  3.657832384951E-02 -2.647285697240E-01
C15  1.425606386213E-01  4.634216761505E-01  2.352714302760E-01
C16 -1.425606386213E-01 -3.657832384951E-02  2.647285697240E-01
H17 -3.927579266029E-02 -4.039382651304E-01 -1.770570423324E-01
H18  3.927579266029E-02  9.606173486962E-02 -3.229429576676E-01
H19  3.927579266029E-02  4.039382651304E-01  1.770570423324E-01
H20 -3.927579266029E-02 -9.606173486962E-02  3.229429576676E-01
C21 -1.863404182181E-01  3.340963030197E-01 -1.954699813866E-01
C22  1.863404182181E-01 -1.659036969803E-01 -3.045300186134E-01
C23  1.863404182181E-01 -3.340963030197E-01  1.954699813866E-01
C24 -1.863404182181E-01  1.659036969803E-01  3.045300186134E-01
H25 -1.162489016796E-01  2.409127360144E-01 -1.069795188891E-01
H26  1.162489016796E-01 -2.590872639856E-01 -3.930204811109E-01
H27  1.162489016796E-01 -2.409127360144E-01  1.069795188891E-01
H28 -1.162489016796E-01  2.590872639856E-01  3.930204811109E-01
C29 -3.157782186144E-01  2.564026119208E-01 -2.681616059996E-01
C30  3.157782186144E-01 -2.435973880792E-01 -2.318383940004E-01
C31  3.157782186144E-01 -2.564026119208E-01  2.681616059996E-01
C32 -3.157782186144E-01  2.435973880792E-01  2.318383940004E-01
H33 -3.492098775118E-01  1.024345741516E-01 -2.375879531686E-01
H34  3.492098775118E-01 -3.975654258484E-01 -2.624120468314E-01
H35  3.492098775118E-01 -1.024345741516E-01  2.375879531686E-01
H36 -3.492098775118E-01  3.975654258484E-01  2.624120468314E-01
C37 -4.098755844966E-01  3.758226201419E-01 -3.850478986320E-01
C38  4.098755844966E-01 -1.241773798581E-01 -1.149521013680E-01
C39  4.098755844966E-01 -3.758226201419E-01  3.850478986320E-01
C40 -4.098755844966E-01  1.241773798581E-01  1.149521013680E-01
C41 -4.570282890771E-01 -3.002985437038E-01  4.610796144071E-01
C42  4.570282890771E-01  1.997014562962E-01  3.892038559288E-02
C43  4.570282890771E-01  3.002985437038E-01 -4.610796144071E-01
C44 -4.570282890771E-01 -1.997014562962E-01 -3.892038559288E-02
H45 -4.237269499544E-01 -1.458947499454E-01  4.307573619987E-01
H46  4.237269499544E-01  3.541052500546E-01  6.924263800130E-02
H47  4.237269499544E-01  1.458947499454E-01 -4.307573619987E-01
H48 -4.237269499544E-01 -3.541052500546E-01 -6.924263800130E-02


#===END

data_OPT_STEP_39

_symmetry_space_group_name_H-M 'P 1'
_cell_length_a      9.66974002
_cell_length_b      6.36562707
_cell_length_c      8.71247165
_cell_angle_alpha   90.000000
_cell_angle_beta  102.712914
_cell_angle_gamma   90.000000

loop_
_atom_site_label
_atom_site_fract_x
_atom_site_fract_y
_atom_site_fract_z
C1 -3.658102655450E-01 -4.190594172104E-01 -4.249616284493E-01
C2  3.658102655450E-01  8.094058278965E-02 -7.503837155071E-02
C3  3.658102655450E-01  4.190594172104E-01  4.249616284493E-01
C4 -3.658102655450E-01 -8.094058278965E-02  7.503837155071E-02
C5 -2.295318902293E-01 -3.441465019151E-01 -3.464465164337E-01
C6  2.295318902293E-01  1.558534980849E-01 -1.535534835663E-01
C7  2.295318902293E-01  3.441465019151E-01  3.464465164337E-01
C8 -2.295318902293E-01 -1.558534980849E-01  1.535534835663E-01
H9 -1.969823820933E-01 -1.893795710197E-01 -3.766697973127E-01
H10  1.969823820933E-01  3.106204289803E-01 -1.233302026873E-01
H11  1.969823820933E-01  1.893795710197E-01  3.766697973127E-01
H12 -1.969823820933E-01 -3.106204289803E-01  1.233302026873E-01
C13 -1.426016170189E-01 -4.633380467549E-01 -2.353276059746E-01
C14  1.426016170189E-01  3.666195324508E-02 -2.646723940254E-01
C15  1.426016170189E-01  4.633380467549E-01  2.353276059746E-01
C16 -1.426016170189E-01 -3.666195324508E-02  2.646723940254E-01
H17 -3.932956031709E-02 -4.038248048244E-01 -1.771140568539E-01
H18  3.932956031709E-02  9.617519517564E-02 -3.228859431461E-01
H19  3.932956031709E-02  4.038248048244E-01  1.771140568539E-01
H20 -3.932956031709E-02 -9.617519517564E-02  3.228859431461E-01
C21 -1.863921432696E-01  3.341823642067E-01 -1.955204121672E-01
C22  1.863921432696E-01 -1.658176357933E-01 -3.044795878328E-01
C23  1.863921432696E-01 -3.341823642067E-01  1.955204121672E-01
C24 -1.863921432696E-01  1.658176357933E-01  3.044795878328E-01
H25 -1.163151114202E-01  2.410312521269E-01 -1.070385114335E-01
H26  1.163151114202E-01 -2.589687478731E-01 -3.929614885665E-01
H27  1.163151114202E-01 -2.410312521269E-01  1.070385114335E-01
H28 -1.163151114202E-01  2.589687478731E-01  3.929614885665E-01
C29 -3.158215089856E-01  2.564611987821E-01 -2.681914070053E-01
C30  3.158215089856E-01 -2.435388012179E-01 -2.318085929947E-01
C31  3.158215089856E-01 -2.564611987821E-01  2.681914070053E-01
C32 -3.158215089856E-01  2.435388012179E-01  2.318085929947E-01
H33 -3.492707503025E-01  1.025030351543E-01 -2.376101696455E-01
H34  3.492707503025E-01 -3.974969648457E-01 -2.623898303545E-01
H35  3.492707503025E-01 -1.025030351543E-01  2.376101696455E-01
H36 -3.492707503025E-01  3.974969648457E-01  2.623898303545E-01
C37 -4.098956396523E-01  3.758502715291E-01 -3.850659498216E-01
C38  4.098956396523E-01 -1.241497284709E-01 -1.149340501784E-01
C39  4.098956396523E-01 -3.758502715291E-01  3.850659498216E-01
C40 -4.098956396523E-01  1.241497284709E-01  1.149340501784E-01
C41 -4.570123392941E-01 -3.003108673441E-01  4.610684997112E-01
C42  4.570123392941E-01  1.996891326559E-01  3.893150028879E-02
C43  4.570123392941E-01  3.003108673441E-01 -4.610684997112E-01
C44 -4.570123392941E-01 -1.996891326559E-01 -3.893150028879E-02
H45 -4.236987237585E-01 -1.459148843376E-01  4.307407871647E-01
H46  4.236987237585E-01  3.540851156624E-01  6.925921283527E-02
H47  4.236987237585E-01  1.459148843376E-01 -4.307407871647E-01
H48 -4.236987237585E-01 -3.540851156624E-01 -6.925921283527E-02


#===END

data_OPT_STEP_40

_symmetry_space_group_name_H-M 'P 1'
_cell_length_a      9.66737762
_cell_length_b      6.36536569
_cell_length_c      8.71436549
_cell_angle_alpha   90.000000
_cell_angle_beta  102.685725
_cell_angle_gamma   90.000000

loop_
_atom_site_label
_atom_site_fract_x
_atom_site_fract_y
_atom_site_fract_z
C1 -3.658123731726E-01 -4.190513064420E-01 -4.249764852589E-01
C2  3.658123731726E-01  8.094869355795E-02 -7.502351474112E-02
C3  3.658123731726E-01  4.190513064420E-01  4.249764852589E-01
C4 -3.658123731726E-01 -8.094869355795E-02  7.502351474112E-02
C5 -2.295437248990E-01 -3.441229463483E-01 -3.464636602880E-01
C6  2.295437248990E-01  1.558770536517E-01 -1.535363397120E-01
C7  2.295437248990E-01  3.441229463483E-01  3.464636602880E-01
C8 -2.295437248990E-01 -1.558770536517E-01  1.535363397120E-01
H9 -1.969647419129E-01 -1.893387177185E-01 -3.766512078025E-01
H10  1.969647419129E-01  3.106612822815E-01 -1.233487921975E-01
H11  1.969647419129E-01  1.893387177185E-01  3.766512078025E-01
H12 -1.969647419129E-01 -3.106612822815E-01  1.233487921975E-01
C13 -1.426580550216E-01 -4.633040865437E-01 -2.353538404786E-01
C14  1.426580550216E-01  3.669591345627E-02 -2.646461595214E-01
C15  1.426580550216E-01  4.633040865437E-01  2.353538404786E-01
C16 -1.426580550216E-01 -3.669591345627E-02  2.646461595214E-01
H17 -3.941097139380E-02 -4.037498463214E-01 -1.771046717485E-01
H18  3.941097139380E-02  9.625015367860E-02 -3.228953282515E-01
H19  3.941097139380E-02  4.037498463214E-01  1.771046717485E-01
H20 -3.941097139380E-02 -9.625015367860E-02  3.228953282515E-01
C21 -1.864764703000E-01  3.342032605994E-01 -1.955642164672E-01
C22  1.864764703000E-01 -1.657967394006E-01 -3.044357835328E-01
C23  1.864764703000E-01 -3.342032605994E-01  1.955642164672E-01
C24 -1.864764703000E-01  1.657967394006E-01  3.044357835328E-01
H25 -1.164324878298E-01  2.410768677690E-01 -1.070793068718E-01
H26  1.164324878298E-01 -2.589231322310E-01 -3.929206931282E-01
H27  1.164324878298E-01 -2.410768677690E-01  1.070793068718E-01
H28 -1.164324878298E-01  2.589231322310E-01  3.929206931282E-01
C29 -3.158934428922E-01  2.564630635021E-01 -2.682368143959E-01
C30  3.158934428922E-01 -2.435369364979E-01 -2.317631856041E-01
C31  3.158934428922E-01 -2.564630635021E-01  2.682368143959E-01
C32 -3.158934428922E-01  2.435369364979E-01  2.317631856041E-01
H33 -3.493739992234E-01  1.025043123300E-01 -2.376610623130E-01
H34  3.493739992234E-01 -3.974956876700E-01 -2.623389376870E-01
H35  3.493739992234E-01 -1.025043123300E-01  2.376610623130E-01
H36 -3.493739992234E-01  3.974956876700E-01  2.623389376870E-01
C37 -4.099284126123E-01  3.758501781029E-01 -3.850936892861E-01
C38  4.099284126123E-01 -1.241498218971E-01 -1.149063107139E-01
C39  4.099284126123E-01 -3.758501781029E-01  3.850936892861E-01
C40 -4.099284126123E-01  1.241498218971E-01  1.149063107139E-01
C41 -4.569812432392E-01 -3.003065658471E-01  4.610774598157E-01
C42  4.569812432392E-01  1.996934341529E-01  3.892254018429E-02
C43  4.569812432392E-01  3.003065658471E-01 -4.610774598157E-01
C44 -4.569812432392E-01 -1.996934341529E-01 -3.892254018429E-02
H45 -4.236434967242E-01 -1.459050296363E-01  4.307576533930E-01
H46  4.236434967242E-01  3.540949703637E-01  6.924234660700E-02
H47  4.236434967242E-01  1.459050296363E-01 -4.307576533930E-01
H48 -4.236434967242E-01 -3.540949703637E-01 -6.924234660700E-02


#===END

data_OPT_STEP_41

_symmetry_space_group_name_H-M 'P 1'
_cell_length_a      9.66289180
_cell_length_b      6.36451368
_cell_length_c      8.71893810
_cell_angle_alpha   90.000000
_cell_angle_beta  102.638251
_cell_angle_gamma   90.000000

loop_
_atom_site_label
_atom_site_fract_x
_atom_site_fract_y
_atom_site_fract_z
C1 -3.658183781970E-01 -4.190388270155E-01 -4.249926070686E-01
C2  3.658183781970E-01  8.096117298452E-02 -7.500739293137E-02
C3  3.658183781970E-01  4.190388270155E-01  4.249926070686E-01
C4 -3.658183781970E-01 -8.096117298452E-02  7.500739293137E-02
C5 -2.295715798891E-01 -3.440824946295E-01 -3.464673385988E-01
C6  2.295715798891E-01  1.559175053705E-01 -1.535326614012E-01
C7  2.295715798891E-01  3.440824946295E-01  3.464673385988E-01
C8 -2.295715798891E-01 -1.559175053705E-01  1.535326614012E-01
H9 -1.969229888746E-01 -1.892741990537E-01 -3.765925931988E-01
H10  1.969229888746E-01  3.107258009463E-01 -1.234074068012E-01
H11  1.969229888746E-01  1.892741990537E-01  3.765925931988E-01
H12 -1.969229888746E-01 -3.107258009463E-01  1.234074068012E-01
C13 -1.427835080438E-01 -4.632481976111E-01 -2.353655380193E-01
C14  1.427835080438E-01  3.675180238889E-02 -2.646344619807E-01
C15  1.427835080438E-01  4.632481976111E-01  2.353655380193E-01
C16 -1.427835080438E-01 -3.675180238889E-02  2.646344619807E-01
H17 -3.958297826124E-02 -4.036176609942E-01 -1.770450837776E-01
H18  3.958297826124E-02  9.638233900583E-02 -3.229549162224E-01
H19  3.958297826124E-02  4.036176609942E-01  1.770450837776E-01
H20 -3.958297826124E-02 -9.638233900583E-02  3.229549162224E-01
C21 -1.866660841398E-01  3.342303405065E-01 -1.956217713250E-01
C22  1.866660841398E-01 -1.657696594935E-01 -3.043782286750E-01
C23  1.866660841398E-01 -3.342303405065E-01  1.956217713250E-01
C24 -1.866660841398E-01  1.657696594935E-01  3.043782286750E-01
H25 -1.166966117098E-01  2.411445258975E-01 -1.071263792812E-01
H26  1.166966117098E-01 -2.588554741025E-01 -3.928736207188E-01
H27  1.166966117098E-01 -2.411445258975E-01  1.071263792812E-01
H28 -1.166966117098E-01  2.588554741025E-01  3.928736207188E-01
C29 -3.160552275404E-01  2.564525314422E-01 -2.683206055695E-01
C30  3.160552275404E-01 -2.435474685578E-01 -2.316793944305E-01
C31  3.160552275404E-01 -2.564525314422E-01  2.683206055695E-01
C32 -3.160552275404E-01  2.435474685578E-01  2.316793944305E-01
H33 -3.495941839158E-01  1.024825916136E-01 -2.377696670798E-01
H34  3.495941839158E-01 -3.975174083864E-01 -2.622303329202E-01
H35  3.495941839158E-01 -1.024825916136E-01  2.377696670798E-01
H36 -3.495941839158E-01  3.975174083864E-01  2.622303329202E-01
C37 -4.100032683019E-01  3.758418650942E-01 -3.851450937352E-01
C38  4.100032683019E-01 -1.241581349058E-01 -1.148549062648E-01
C39  4.100032683019E-01 -3.758418650942E-01  3.851450937352E-01
C40 -4.100032683019E-01  1.241581349058E-01  1.148549062648E-01
C41 -4.569143474446E-01 -3.002874840507E-01  4.611097343730E-01
C42  4.569143474446E-01  1.997125159493E-01  3.889026562695E-02
C43  4.569143474446E-01  3.002874840507E-01 -4.611097343730E-01
C44 -4.569143474446E-01 -1.997125159493E-01 -3.889026562695E-02
H45 -4.235234535214E-01 -1.458710725602E-01  4.308151090496E-01
H46  4.235234535214E-01  3.541289274398E-01  6.918489095039E-02
H47  4.235234535214E-01  1.458710725602E-01 -4.308151090496E-01
H48 -4.235234535214E-01 -3.541289274398E-01 -6.918489095039E-02


#===END

data_OPT_STEP_42

_symmetry_space_group_name_H-M 'P 1'
_cell_length_a      9.65824928
_cell_length_b      6.36398327
_cell_length_c      8.72348434
_cell_angle_alpha   90.000000
_cell_angle_beta  102.588526
_cell_angle_gamma   90.000000

loop_
_atom_site_label
_atom_site_fract_x
_atom_site_fract_y
_atom_site_fract_z
C1 -3.658352285642E-01 -4.189797446085E-01 -4.250169817443E-01
C2  3.658352285642E-01  8.102025539153E-02 -7.498301825575E-02
C3  3.658352285642E-01  4.189797446085E-01  4.250169817443E-01
C4 -3.658352285642E-01 -8.102025539153E-02  7.498301825575E-02
C5 -2.296119139285E-01 -3.439601004895E-01 -3.465084255357E-01
C6  2.296119139285E-01  1.560398995105E-01 -1.534915744643E-01
C7  2.296119139285E-01  3.439601004895E-01  3.465084255357E-01
C8 -2.296119139285E-01 -1.560398995105E-01  1.534915744643E-01
H9 -1.969283897305E-01 -1.891421756341E-01 -3.766235952234E-01
H10  1.969283897305E-01  3.108578243659E-01 -1.233764047766E-01
H11  1.969283897305E-01  1.891421756341E-01  3.766235952234E-01
H12 -1.969283897305E-01 -3.108578243659E-01  1.233764047766E-01
C13 -1.428886808527E-01 -4.630738073816E-01 -2.354278005939E-01
C14  1.428886808527E-01  3.692619261839E-02 -2.645721994061E-01
C15  1.428886808527E-01  4.630738073816E-01  2.354278005939E-01
C16 -1.428886808527E-01 -3.692619261839E-02  2.645721994061E-01
H17 -3.971513074844E-02 -4.033765867280E-01 -1.771084602804E-01
H18  3.971513074844E-02  9.662341327201E-02 -3.228915397196E-01
H19  3.971513074844E-02  4.033765867280E-01  1.771084602804E-01
H20 -3.971513074844E-02 -9.662341327201E-02  3.228915397196E-01
C21 -1.868130860553E-01  3.343936724482E-01 -1.956896109000E-01
C22  1.868130860553E-01 -1.656063275518E-01 -3.043103891000E-01
C23  1.868130860553E-01 -3.343936724482E-01  1.956896109000E-01
C24 -1.868130860553E-01  1.656063275518E-01  3.043103891000E-01
H25 -1.168961043955E-01  2.413584070241E-01 -1.072047839718E-01
H26  1.168961043955E-01 -2.586415929759E-01 -3.927952160282E-01
H27  1.168961043955E-01 -2.413584070241E-01  1.072047839718E-01
H28 -1.168961043955E-01  2.586415929759E-01  3.927952160282E-01
C29 -3.161806581261E-01  2.565548533918E-01 -2.683693979757E-01
C30  3.161806581261E-01 -2.434451466082E-01 -2.316306020243E-01
C31  3.161806581261E-01 -2.565548533918E-01  2.683693979757E-01
C32 -3.161806581261E-01  2.434451466082E-01  2.316306020243E-01
H33 -3.497552593808E-01  1.025768876962E-01 -2.378229982187E-01
H34  3.497552593808E-01 -3.974231123038E-01 -2.621770017813E-01
H35  3.497552593808E-01 -1.025768876962E-01  2.378229982187E-01
H36 -3.497552593808E-01  3.974231123038E-01  2.621770017813E-01
C37 -4.100643423030E-01  3.758912922930E-01 -3.851707069166E-01
C38  4.100643423030E-01 -1.241087077070E-01 -1.148292930834E-01
C39  4.100643423030E-01 -3.758912922930E-01  3.851707069166E-01
C40 -4.100643423030E-01  1.241087077070E-01  1.148292930834E-01
C41 -4.568710988701E-01 -3.002772739093E-01  4.611111528943E-01
C42  4.568710988701E-01  1.997227260907E-01  3.888884710567E-02
C43  4.568710988701E-01  3.002772739093E-01 -4.611111528943E-01
C44 -4.568710988701E-01 -1.997227260907E-01 -3.888884710567E-02
H45 -4.234450289198E-01 -1.458542102598E-01  4.308167288046E-01
H46  4.234450289198E-01  3.541457897402E-01  6.918327119542E-02
H47  4.234450289198E-01  1.458542102598E-01 -4.308167288046E-01
H48 -4.234450289198E-01 -3.541457897402E-01 -6.918327119542E-02


#===END

data_OPT_STEP_43

_symmetry_space_group_name_H-M 'P 1'
_cell_length_a      9.64937972
_cell_length_b      6.36273529
_cell_length_c      8.73299841
_cell_angle_alpha   90.000000
_cell_angle_beta  102.493381
_cell_angle_gamma   90.000000

loop_
_atom_site_label
_atom_site_fract_x
_atom_site_fract_y
_atom_site_fract_z
C1 -3.658764093184E-01 -4.188398564939E-01 -4.250866671452E-01
C2  3.658764093184E-01  8.116014350610E-02 -7.491333285484E-02
C3  3.658764093184E-01  4.188398564939E-01  4.250866671452E-01
C4 -3.658764093184E-01 -8.116014350610E-02  7.491333285484E-02
C5 -2.297058072585E-01 -3.436639707875E-01 -3.466308404957E-01
C6  2.297058072585E-01  1.563360292125E-01 -1.533691595043E-01
C7  2.297058072585E-01  3.436639707875E-01  3.466308404957E-01
C8 -2.297058072585E-01 -1.563360292125E-01  1.533691595043E-01
H9 -1.969739687447E-01 -1.888249280988E-01 -3.767538892098E-01
H10  1.969739687447E-01  3.111750719012E-01 -1.232461107902E-01
H11  1.969739687447E-01  1.888249280988E-01  3.767538892098E-01
H12 -1.969739687447E-01 -3.111750719012E-01  1.232461107902E-01
C13 -1.430956296391E-01 -4.626529573884E-01 -2.355883170598E-01
C14  1.430956296391E-01  3.734704261160E-02 -2.644116829402E-01
C15  1.430956296391E-01  4.626529573884E-01  2.355883170598E-01
C16 -1.430956296391E-01 -3.734704261160E-02  2.644116829402E-01
H17 -3.996907661032E-02 -4.028186304135E-01 -1.773003740289E-01
H18  3.996907661032E-02  9.718136958655E-02 -3.226996259711E-01
H19  3.996907661032E-02  4.028186304135E-01  1.773003740289E-01
H20 -3.996907661032E-02 -9.718136958655E-02  3.226996259711E-01
C21 -1.870868784308E-01  3.347882734868E-01 -1.958412073197E-01
C22  1.870868784308E-01 -1.652117265132E-01 -3.041587926803E-01
C23  1.870868784308E-01 -3.347882734868E-01  1.958412073197E-01
C24 -1.870868784308E-01  1.652117265132E-01  3.041587926803E-01
H25 -1.172641924938E-01  2.418546185745E-01 -1.073831236754E-01
H26  1.172641924938E-01 -2.581453814255E-01 -3.926168763246E-01
H27  1.172641924938E-01 -2.418546185745E-01  1.073831236754E-01
H28 -1.172641924938E-01  2.581453814255E-01  3.926168763246E-01
C29 -3.164062028836E-01  2.568001079454E-01 -2.684702649392E-01
C30  3.164062028836E-01 -2.431998920546E-01 -2.315297350608E-01
C31  3.164062028836E-01 -2.568001079454E-01  2.684702649392E-01
C32 -3.164062028836E-01  2.431998920546E-01  2.315297350608E-01
H33 -3.500305971223E-01  1.027989119803E-01 -2.379177620809E-01
H34  3.500305971223E-01 -3.972010880197E-01 -2.620822379191E-01
H35  3.500305971223E-01 -1.027989119803E-01  2.379177620809E-01
H36 -3.500305971223E-01  3.972010880197E-01  2.620822379191E-01
C37 -4.101750253981E-01  3.760084783084E-01 -3.852239659717E-01
C38  4.101750253981E-01 -1.239915216916E-01 -1.147760340284E-01
C39  4.101750253981E-01 -3.760084783084E-01  3.852239659716E-01
C40 -4.101750253981E-01  1.239915216916E-01  1.147760340283E-01
C41 -4.568030086639E-01 -3.002529853691E-01  4.610974274797E-01
C42  4.568030086639E-01  1.997470146309E-01  3.890257252031E-02
C43  4.568030086639E-01  3.002529853691E-01 -4.610974274797E-01
C44 -4.568030086639E-01 -1.997470146309E-01 -3.890257252031E-02
H45 -4.233223861316E-01 -1.458106085987E-01  4.307942517511E-01
H46  4.233223861316E-01  3.541893914013E-01  6.920574824887E-02
H47  4.233223861316E-01  1.458106085987E-01 -4.307942517511E-01
H48 -4.233223861316E-01 -3.541893914013E-01 -6.920574824887E-02


#===END

data_OPT_STEP_44

_symmetry_space_group_name_H-M 'P 1'
_cell_length_a      9.63570109
_cell_length_b      6.36001881
_cell_length_c      8.74977421
_cell_angle_alpha   90.000000
_cell_angle_beta  102.303730
_cell_angle_gamma   90.000000

loop_
_atom_site_label
_atom_site_fract_x
_atom_site_fract_y
_atom_site_fract_z
C1 -3.660044593297E-01 -4.184644181622E-01 -4.253278101908E-01
C2  3.660044593297E-01  8.153558183778E-02 -7.467218980921E-02
C3  3.660044593297E-01  4.184644181622E-01  4.253278101908E-01
C4 -3.660044593297E-01 -8.153558183778E-02  7.467218980921E-02
C5 -2.299804732462E-01 -3.428802776020E-01 -3.470881539642E-01
C6  2.299804732462E-01  1.571197223980E-01 -1.529118460358E-01
C7  2.299804732462E-01  3.428802776020E-01  3.470881539642E-01
C8 -2.299804732462E-01 -1.571197223980E-01  1.529118460358E-01
H9 -1.972308582044E-01 -1.879988621994E-01 -3.773286617373E-01
H10  1.972308582044E-01  3.120011378006E-01 -1.226713382627E-01
H11  1.972308582044E-01  1.879988621994E-01  3.773286617373E-01
H12 -1.972308582044E-01 -3.120011378006E-01  1.226713382627E-01
C13 -1.435446772966E-01 -4.615276304255E-01 -2.361045890874E-01
C14  1.435446772966E-01  3.847236957451E-02 -2.638954109126E-01
C15  1.435446772966E-01  4.615276304255E-01  2.361045890874E-01
C16 -1.435446772966E-01 -3.847236957451E-02  2.638954109126E-01
H17 -4.053438113065E-02 -4.013730846625E-01 -1.779757975717E-01
H18  4.053438113065E-02  9.862691533747E-02 -3.220242024283E-01
H19  4.053438113065E-02  4.013730846625E-01  1.779757975717E-01
H20 -4.053438113065E-02 -9.862691533747E-02  3.220242024283E-01
C21 -1.875701255902E-01  3.358557276766E-01 -1.962187674142E-01
C22  1.875701255902E-01 -1.641442723234E-01 -3.037812325858E-01
C23  1.875701255902E-01 -3.358557276766E-01  1.962187674142E-01
C24 -1.875701255902E-01  1.641442723234E-01  3.037812325858E-01
H25 -1.178916684425E-01  2.431796302508E-01 -1.078142592666E-01
H26  1.178916684425E-01 -2.568203697492E-01 -3.921857407334E-01
H27  1.178916684425E-01 -2.431796302508E-01  1.078142592666E-01
H28 -1.178916684425E-01  2.568203697492E-01  3.921857407334E-01
C29 -3.167497304467E-01  2.574742421374E-01 -2.686420007674E-01
C30  3.167497304467E-01 -2.425257578626E-01 -2.313579992326E-01
C31  3.167497304467E-01 -2.574742421374E-01  2.686420007674E-01
C32 -3.167497304467E-01  2.425257578626E-01  2.313579992326E-01
H33 -3.503900408463E-01  1.034219750781E-01 -2.379836593058E-01
H34  3.503900408463E-01 -3.965780249219E-01 -2.620163406942E-01
H35  3.503900408463E-01 -1.034219750781E-01  2.379836593058E-01
H36 -3.503900408463E-01  3.965780249219E-01  2.620163406942E-01
C37 -4.103419125265E-01  3.763310286340E-01 -3.853118799107E-01
C38  4.103419125265E-01 -1.236689713660E-01 -1.146881200893E-01
C39  4.103419125265E-01 -3.763310286340E-01  3.853118799107E-01
C40 -4.103419125265E-01  1.236689713660E-01  1.146881200893E-01
C41 -4.567644547400E-01 -3.001978473294E-01  4.609498386540E-01
C42  4.567644547400E-01  1.998021526706E-01  3.905016134603E-02
C43  4.567644547400E-01  3.001978473294E-01 -4.609498386540E-01
C44 -4.567644547400E-01 -1.998021526706E-01 -3.905016134603E-02
H45 -4.232505192521E-01 -1.457155256425E-01  4.305389200745E-01
H46  4.232505192521E-01  3.542844743575E-01  6.946107992547E-02
H47  4.232505192521E-01  1.457155256425E-01 -4.305389200745E-01
H48 -4.232505192521E-01 -3.542844743575E-01 -6.946107992547E-02


#===END

data_OPT_STEP_45

_symmetry_space_group_name_H-M 'P 1'
_cell_length_a      9.62822353
_cell_length_b      6.35704976
_cell_length_c      8.76296547
_cell_angle_alpha   90.000000
_cell_angle_beta  102.126467
_cell_angle_gamma   90.000000

loop_
_atom_site_label
_atom_site_fract_x
_atom_site_fract_y
_atom_site_fract_z
C1 -3.661867453070E-01 -4.180052498213E-01 -4.256735533976E-01
C2  3.661867453070E-01  8.199475017873E-02 -7.432644660240E-02
C3  3.661867453070E-01  4.180052498213E-01  4.256735533976E-01
C4 -3.661867453070E-01 -8.199475017873E-02  7.432644660240E-02
C5 -2.303591833677E-01 -3.419280620833E-01 -3.477571011157E-01
C6  2.303591833677E-01  1.580719379167E-01 -1.522428988843E-01
C7  2.303591833677E-01  3.419280620833E-01  3.477571011157E-01
C8 -2.303591833677E-01 -1.580719379167E-01  1.522428988843E-01
H9 -1.976808576479E-01 -1.869963475612E-01 -3.782046870414E-01
H10  1.976808576479E-01  3.130036524388E-01 -1.217953129586E-01
H11  1.976808576479E-01  1.869963475612E-01  3.782046870414E-01
H12 -1.976808576479E-01 -3.130036524388E-01  1.217953129586E-01
C13 -1.440312735815E-01 -4.601661904566E-01 -2.368210385724E-01
C14  1.440312735815E-01  3.983380954340E-02 -2.631789614276E-01
C15  1.440312735815E-01  4.601661904566E-01  2.368210385724E-01
C16 -1.440312735815E-01 -3.983380954340E-02  2.631789614276E-01
H17 -4.117717862141E-02 -3.996287188587E-01 -1.789270311168E-01
H18  4.117717862141E-02  1.003712811413E-01 -3.210729688832E-01
H19  4.117717862141E-02  3.996287188587E-01  1.789270311168E-01
H20 -4.117717862141E-02 -1.003712811413E-01  3.210729688832E-01
C21 -1.879712296663E-01  3.371490566832E-01 -1.966766975656E-01
C22  1.879712296663E-01 -1.628509433168E-01 -3.033233024344E-01
C23  1.879712296663E-01 -3.371490566832E-01  1.966766975656E-01
C24 -1.879712296663E-01  1.628509433168E-01  3.033233024344E-01
H25 -1.183868737566E-01  2.447901462428E-01 -1.083113999281E-01
H26  1.183868737566E-01 -2.552098537572E-01 -3.916886000719E-01
H27  1.183868737566E-01 -2.447901462428E-01  1.083113999281E-01
H28 -1.183868737566E-01  2.552098537572E-01  3.916886000719E-01
C29 -3.169605215334E-01  2.582922165522E-01 -2.687908626095E-01
C30  3.169605215334E-01 -2.417077834478E-01 -2.312091373905E-01
C31  3.169605215334E-01 -2.582922165522E-01  2.687908626095E-01
C32 -3.169605215334E-01  2.417077834478E-01  2.312091373905E-01
H33 -3.505217548185E-01  1.041786837251E-01 -2.379358498132E-01
H34  3.505217548185E-01 -3.958213162749E-01 -2.620641501868E-01
H35  3.505217548185E-01 -1.041786837251E-01  2.379358498132E-01
H36 -3.505217548185E-01  3.958213162749E-01  2.620641501868E-01
C37 -4.104420811358E-01  3.767258595044E-01 -3.853865297949E-01
C38  4.104420811358E-01 -1.232741404956E-01 -1.146134702051E-01
C39  4.104420811358E-01 -3.767258595044E-01  3.853865297949E-01
C40 -4.104420811358E-01  1.232741404956E-01  1.146134702051E-01
C41 -4.568436662234E-01 -3.001341412724E-01  4.606868535939E-01
C42  4.568436662234E-01  1.998658587276E-01  3.931314640605E-02
C43  4.568436662234E-01  3.001341412724E-01 -4.606868535939E-01
C44 -4.568436662234E-01 -1.998658587276E-01 -3.931314640605E-02
H45 -4.233887925087E-01 -1.456019659735E-01  4.300814636836E-01
H46  4.233887925087E-01  3.543980340265E-01  6.991853631636E-02
H47  4.233887925087E-01  1.456019659735E-01 -4.300814636836E-01
H48 -4.233887925087E-01 -3.543980340265E-01 -6.991853631636E-02


#===END

data_OPT_STEP_46

_symmetry_space_group_name_H-M 'P 1'
_cell_length_a      9.62708884
_cell_length_b      6.35523200
_cell_length_c      8.76875246
_cell_angle_alpha   90.000000
_cell_angle_beta  102.036911
_cell_angle_gamma   90.000000

loop_
_atom_site_label
_atom_site_fract_x
_atom_site_fract_y
_atom_site_fract_z
C1 -3.663112410658E-01 -4.177122757378E-01 -4.259043074947E-01
C2  3.663112410658E-01  8.228772426221E-02 -7.409569250531E-02
C3  3.663112410658E-01  4.177122757378E-01  4.259043074947E-01
C4 -3.663112410658E-01 -8.228772426221E-02  7.409569250531E-02
C5 -2.306127756562E-01 -3.413258597350E-01 -3.482121783791E-01
C6  2.306127756562E-01  1.586741402650E-01 -1.517878216209E-01
C7  2.306127756562E-01  3.413258597350E-01  3.482121783791E-01
C8 -2.306127756562E-01 -1.586741402650E-01  1.517878216209E-01
H9 -1.980148410256E-01 -1.863632786645E-01 -3.788143558213E-01
H10  1.980148410256E-01  3.136367213355E-01 -1.211856441787E-01
H11  1.980148410256E-01  1.863632786645E-01  3.788143558213E-01
H12 -1.980148410256E-01 -3.136367213355E-01  1.211856441787E-01
C13 -1.443145960429E-01 -4.593065316654E-01 -2.372975637921E-01
C14  1.443145960429E-01  4.069346833462E-02 -2.627024362079E-01
C15  1.443145960429E-01  4.593065316654E-01  2.372975637921E-01
C16 -1.443145960429E-01 -4.069346833462E-02  2.627024362079E-01
H17 -4.156192185289E-02 -3.985357628451E-01 -1.795708603201E-01
H18  4.156192185289E-02  1.014642371549E-01 -3.204291396799E-01
H19  4.156192185289E-02  3.985357628451E-01  1.795708603201E-01
H20 -4.156192185289E-02 -1.014642371549E-01  3.204291396799E-01
C21 -1.881545751373E-01  3.379676674843E-01 -1.969578776182E-01
C22  1.881545751373E-01 -1.620323325157E-01 -3.030421223818E-01
C23  1.881545751373E-01 -3.379676674843E-01  1.969578776182E-01
C24 -1.881545751373E-01  1.620323325157E-01  3.030421223818E-01
H25 -1.185983980907E-01  2.458100137695E-01 -1.086106606867E-01
H26  1.185983980907E-01 -2.541899862305E-01 -3.913893393133E-01
H27  1.185983980907E-01 -2.458100137695E-01  1.086106606867E-01
H28 -1.185983980907E-01  2.541899862305E-01  3.913893393133E-01
C29 -3.170174837891E-01  2.588124137007E-01 -2.688546867708E-01
C30  3.170174837891E-01 -2.411875862993E-01 -2.311453132292E-01
C31  3.170174837891E-01 -2.588124137007E-01  2.688546867708E-01
C32 -3.170174837891E-01  2.411875862993E-01  2.311453132292E-01
H33 -3.504946707202E-01  1.046626193003E-01 -2.378514937278E-01
H34  3.504946707202E-01 -3.953373806997E-01 -2.621485062722E-01
H35  3.504946707202E-01 -1.046626193003E-01  2.378514937278E-01
H36 -3.504946707202E-01  3.953373806997E-01  2.621485062722E-01
C37 -4.104672120744E-01  3.769777631714E-01 -3.854169924353E-01
C38  4.104672120744E-01 -1.230222368286E-01 -1.145830075647E-01
C39  4.104672120744E-01 -3.769777631714E-01  3.854169924353E-01
C40 -4.104672120744E-01  1.230222368286E-01  1.145830075647E-01
C41 -4.569400043377E-01 -3.000958755313E-01  4.604905885773E-01
C42  4.569400043377E-01  1.999041244687E-01  3.950941142269E-02
C43  4.569400043377E-01  3.000958755313E-01 -4.604905885773E-01
C44 -4.569400043377E-01 -1.999041244687E-01 -3.950941142269E-02
H45 -4.235582933993E-01 -1.455340762618E-01  4.297379140924E-01
H46  4.235582933993E-01  3.544659237382E-01  7.026208590764E-02
H47  4.235582933993E-01  1.455340762618E-01 -4.297379140924E-01
H48 -4.235582933993E-01 -3.544659237382E-01 -7.026208590764E-02


#===END

data_OPT_STEP_47

_symmetry_space_group_name_H-M 'P 1'
_cell_length_a      9.61695906
_cell_length_b      6.35581604
_cell_length_c      8.78212166
_cell_angle_alpha   90.000000
_cell_angle_beta  101.831703
_cell_angle_gamma   90.000000

loop_
_atom_site_label
_atom_site_fract_x
_atom_site_fract_y
_atom_site_fract_z
C1 -3.664883476491E-01 -4.174177500131E-01 -4.261492554801E-01
C2  3.664883476491E-01  8.258224998691E-02 -7.385074451986E-02
C3  3.664883476491E-01  4.174177500131E-01  4.261492554801E-01
C4 -3.664883476491E-01 -8.258224998691E-02  7.385074451986E-02
C5 -2.310015377414E-01 -3.406864684093E-01 -3.486550937373E-01
C6  2.310015377414E-01  1.593135315907E-01 -1.513449062627E-01
C7  2.310015377414E-01  3.406864684093E-01  3.486550937373E-01
C8 -2.310015377414E-01 -1.593135315907E-01  1.513449062627E-01
H9 -1.983822868816E-01 -1.857554023194E-01 -3.793636729545E-01
H10  1.983822868816E-01  3.142445976806E-01 -1.206363270455E-01
H11  1.983822868816E-01  1.857554023194E-01  3.793636729545E-01
H12 -1.983822868816E-01 -3.142445976806E-01  1.206363270455E-01
C13 -1.449530341545E-01 -4.582518329519E-01 -2.377626977894E-01
C14  1.449530341545E-01  4.174816704807E-02 -2.622373022106E-01
C15  1.449530341545E-01  4.582518329519E-01  2.377626977894E-01
C16 -1.449530341545E-01 -4.174816704807E-02  2.622373022106E-01
H17 -4.237463708366E-02 -3.971689574008E-01 -1.801738735712E-01
H18  4.237463708366E-02  1.028310425992E-01 -3.198261264288E-01
H19  4.237463708366E-02  3.971689574008E-01  1.801738735712E-01
H20 -4.237463708366E-02 -1.028310425992E-01  3.198261264288E-01
C21 -1.888250309177E-01  3.390869768061E-01 -1.972615549373E-01
C22  1.888250309177E-01 -1.609130231939E-01 -3.027384450627E-01
C23  1.888250309177E-01 -3.390869768061E-01  1.972615549373E-01
C24 -1.888250309177E-01  1.609130231939E-01  3.027384450627E-01
H25 -1.194810907351E-01  2.472706508429E-01 -1.089019204161E-01
H26  1.194810907351E-01 -2.527293491571E-01 -3.910980795839E-01
H27  1.194810907351E-01 -2.472706508429E-01  1.089019204161E-01
H28 -1.194810907351E-01  2.527293491571E-01  3.910980795839E-01
C29 -3.174787851640E-01  2.595725695487E-01 -2.689901349255E-01
C30  3.174787851640E-01 -2.404274304513E-01 -2.310098650745E-01
C31  3.174787851640E-01 -2.595725695487E-01  2.689901349255E-01
C32 -3.174787851640E-01  2.404274304513E-01  2.310098650745E-01
H33 -3.509740642517E-01  1.054712168956E-01 -2.378479772379E-01
H34  3.509740642517E-01 -3.945287831044E-01 -2.621520227621E-01
H35  3.509740642517E-01 -1.054712168956E-01  2.378479772379E-01
H36 -3.509740642517E-01  3.945287831044E-01  2.621520227621E-01
C37 -4.106867495734E-01  3.773299821227E-01 -3.854993405925E-01
C38  4.106867495734E-01 -1.226700178773E-01 -1.145006594075E-01
C39  4.106867495734E-01 -3.773299821227E-01  3.854993405925E-01
C40 -4.106867495734E-01  1.226700178773E-01  1.145006594075E-01
C41 -4.568877640688E-01 -3.001635007549E-01  4.603257222893E-01
C42  4.568877640688E-01  1.998364992451E-01  3.967427771068E-02
C43  4.568877640688E-01  3.001635007549E-01 -4.603257222893E-01
C44 -4.568877640688E-01 -1.998364992451E-01 -3.967427771068E-02
H45 -4.234660795195E-01 -1.456485347688E-01  4.294595134143E-01
H46  4.234660795195E-01  3.543514652312E-01  7.054048658571E-02
H47  4.234660795195E-01  1.456485347688E-01 -4.294595134143E-01
H48 -4.234660795195E-01 -3.543514652312E-01 -7.054048658571E-02


#===END

data_OPT_STEP_48

_symmetry_space_group_name_H-M 'P 1'
_cell_length_a      9.61519175
_cell_length_b      6.35668702
_cell_length_c      8.78382339
_cell_angle_alpha   90.000000
_cell_angle_beta  101.737747
_cell_angle_gamma   90.000000

loop_
_atom_site_label
_atom_site_fract_x
_atom_site_fract_y
_atom_site_fract_z
C1 -3.665996350657E-01 -4.172426040588E-01 -4.263170720455E-01
C2  3.665996350657E-01  8.275739594120E-02 -7.368292795455E-02
C3  3.665996350657E-01  4.172426040588E-01  4.263170720455E-01
C4 -3.665996350657E-01 -8.275739594120E-02  7.368292795455E-02
C5 -2.312339798973E-01 -3.403039560345E-01 -3.489628905597E-01
C6  2.312339798973E-01  1.596960439655E-01 -1.510371094403E-01
C7  2.312339798973E-01  3.403039560345E-01  3.489628905597E-01
C8 -2.312339798973E-01 -1.596960439655E-01  1.510371094403E-01
H9 -1.986659188929E-01 -1.853810278206E-01 -3.797563672954E-01
H10  1.986659188929E-01  3.146189721794E-01 -1.202436327046E-01
H11  1.986659188929E-01  1.853810278206E-01  3.797563672954E-01
H12 -1.986659188929E-01 -3.146189721794E-01  1.202436327046E-01
C13 -1.452389784491E-01 -4.576593209877E-01 -2.380842108600E-01
C14  1.452389784491E-01  4.234067901226E-02 -2.619157891400E-01
C15  1.452389784491E-01  4.576593209877E-01  2.380842108600E-01
C16 -1.452389784491E-01 -4.234067901226E-02  2.619157891400E-01
H17 -4.276652322478E-02 -3.964068935898E-01 -1.805777837503E-01
H18  4.276652322478E-02  1.035931064102E-01 -3.194222162497E-01
H19  4.276652322478E-02  3.964068935898E-01  1.805777837503E-01
H20 -4.276652322478E-02 -1.035931064102E-01  3.194222162497E-01
C21 -1.890410915666E-01  3.396859162246E-01 -1.974677808606E-01
C22  1.890410915666E-01 -1.603140837754E-01 -3.025322191394E-01
C23  1.890410915666E-01 -3.396859162246E-01  1.974677808606E-01
C24 -1.890410915666E-01  1.603140837754E-01  3.025322191394E-01
H25 -1.197419163171E-01  2.480372216622E-01 -1.091206697725E-01
H26  1.197419163171E-01 -2.519627783378E-01 -3.908793302275E-01
H27  1.197419163171E-01 -2.480372216622E-01  1.091206697725E-01
H28 -1.197419163171E-01  2.519627783378E-01  3.908793302275E-01
C29 -3.175738486559E-01  2.599747180563E-01 -2.690654229962E-01
C30  3.175738486559E-01 -2.400252819437E-01 -2.309345770038E-01
C31  3.175738486559E-01 -2.599747180563E-01  2.690654229962E-01
C32 -3.175738486559E-01  2.400252819437E-01  2.309345770038E-01
H33 -3.510130878446E-01  1.058773288199E-01 -2.378380534083E-01
H34  3.510130878446E-01 -3.941226711801E-01 -2.621619465917E-01
H35  3.510130878446E-01 -1.058773288199E-01  2.378380534083E-01
H36 -3.510130878446E-01  3.941226711801E-01  2.621619465917E-01
C37 -4.107298522598E-01  3.775255988493E-01 -3.855370950802E-01
C38  4.107298522598E-01 -1.224744011507E-01 -1.144629049198E-01
C39  4.107298522598E-01 -3.775255988493E-01  3.855370950802E-01
C40 -4.107298522598E-01  1.224744011507E-01  1.144629049198E-01
C41 -4.569531378721E-01 -3.001802604591E-01  4.601993788872E-01
C42  4.569531378721E-01  1.998197395409E-01  3.980062111279E-02
C43  4.569531378721E-01  3.001802604591E-01 -4.601993788872E-01
C44 -4.569531378721E-01 -1.998197395409E-01 -3.980062111279E-02
H45 -4.235809603683E-01 -1.456727238732E-01  4.292461573932E-01
H46  4.235809603683E-01  3.543272761268E-01  7.075384260681E-02
H47  4.235809603683E-01  1.456727238732E-01 -4.292461573932E-01
H48 -4.235809603683E-01 -3.543272761268E-01 -7.075384260681E-02


#===END

data_OPT_STEP_49

_symmetry_space_group_name_H-M 'P 1'
_cell_length_a      9.61680875
_cell_length_b      6.35669475
_cell_length_c      8.78132052
_cell_angle_alpha   90.000000
_cell_angle_beta  101.805846
_cell_angle_gamma   90.000000

loop_
_atom_site_label
_atom_site_fract_x
_atom_site_fract_y
_atom_site_fract_z
C1 -3.665198153228E-01 -4.173981528884E-01 -4.261859581446E-01
C2  3.665198153228E-01  8.260184711160E-02 -7.381404185536E-02
C3  3.665198153228E-01  4.173981528884E-01  4.261859581446E-01
C4 -3.665198153228E-01 -8.260184711160E-02  7.381404185536E-02
C5 -2.310691260371E-01 -3.406310845119E-01 -3.487127130557E-01
C6  2.310691260371E-01  1.593689154881E-01 -1.512872869443E-01
C7  2.310691260371E-01  3.406310845119E-01  3.487127130557E-01
C8 -2.310691260371E-01 -1.593689154881E-01  1.512872869443E-01
H9 -1.984615905599E-01 -1.857102785718E-01 -3.794294280769E-01
H10  1.984615905599E-01  3.142897214282E-01 -1.205705719231E-01
H11  1.984615905599E-01  1.857102785718E-01  3.794294280769E-01
H12 -1.984615905599E-01 -3.142897214282E-01  1.205705719231E-01
C13 -1.450403252293E-01 -4.581477788383E-01 -2.378206379071E-01
C14  1.450403252293E-01  4.185222116173E-02 -2.621793620929E-01
C15  1.450403252293E-01  4.581477788383E-01  2.378206379071E-01
C16 -1.450403252293E-01 -4.185222116173E-02  2.621793620929E-01
H17 -4.249814042092E-02 -3.970296169500E-01 -1.802318656934E-01
H18  4.249814042092E-02  1.029703830500E-01 -3.197681343066E-01
H19  4.249814042092E-02  3.970296169500E-01  1.802318656934E-01
H20 -4.249814042092E-02 -1.029703830500E-01  3.197681343066E-01
C21 -1.888945579309E-01  3.392025189531E-01 -1.973029180073E-01
C22  1.888945579309E-01 -1.607974810469E-01 -3.026970819927E-01
C23  1.888945579309E-01 -3.392025189531E-01  1.973029180073E-01
C24 -1.888945579309E-01  1.607974810469E-01  3.026970819927E-01
H25 -1.195662045108E-01  2.474261592505E-01 -1.089448386176E-01
H26  1.195662045108E-01 -2.525738407495E-01 -3.910551613824E-01
H27  1.195662045108E-01 -2.474261592505E-01  1.089448386176E-01
H28 -1.195662045108E-01  2.525738407495E-01  3.910551613824E-01
C29 -3.175113650423E-01  2.596559383145E-01 -2.690134098781E-01
C30  3.175113650423E-01 -2.403440616855E-01 -2.309865901219E-01
C31  3.175113650423E-01 -2.596559383145E-01  2.690134098781E-01
C32 -3.175113650423E-01  2.403440616855E-01  2.309865901219E-01
H33 -3.509934660092E-01  1.055642973703E-01 -2.378607078545E-01
H34  3.509934660092E-01 -3.944357026297E-01 -2.621392921455E-01
H35  3.509934660092E-01 -1.055642973703E-01  2.378607078545E-01
H36 -3.509934660092E-01  3.944357026297E-01  2.621392921455E-01
C37 -4.107011539449E-01  3.773707228312E-01 -3.855113924778E-01
C38  4.107011539449E-01 -1.226292771688E-01 -1.144886075222E-01
C39  4.107011539449E-01 -3.773707228312E-01  3.855113924778E-01
C40 -4.107011539449E-01  1.226292771688E-01  1.144886075222E-01
C41 -4.569037821084E-01 -3.001816077687E-01  4.603020915216E-01
C42  4.569037821084E-01  1.998183922313E-01  3.969790847840E-02
C43  4.569037821084E-01  3.001816077687E-01 -4.603020915216E-01
C44 -4.569037821084E-01 -1.998183922313E-01 -3.969790847840E-02
H45 -4.234942562816E-01 -1.456766942716E-01  4.294235817833E-01
H46  4.234942562816E-01  3.543233057284E-01  7.057641821673E-02
H47  4.234942562816E-01  1.456766942716E-01 -4.294235817833E-01
H48 -4.234942562816E-01 -3.543233057284E-01 -7.057641821673E-02


#===END

data_OPT_STEP_50

_symmetry_space_group_name_H-M 'P 1'
_cell_length_a      9.61706359
_cell_length_b      6.35610512
_cell_length_c      8.78171093
_cell_angle_alpha   90.000000
_cell_angle_beta  101.825815
_cell_angle_gamma   90.000000

loop_
_atom_site_label
_atom_site_fract_x
_atom_site_fract_y
_atom_site_fract_z
C1 -3.664961162406E-01 -4.174220012590E-01 -4.261574788913E-01
C2  3.664961162406E-01  8.257799874104E-02 -7.384252110872E-02
C3  3.664961162406E-01  4.174220012590E-01  4.261574788913E-01
C4 -3.664961162406E-01 -8.257799874104E-02  7.384252110872E-02
C5 -2.310193062933E-01 -3.406868486553E-01 -3.486632143663E-01
C6  2.310193062933E-01  1.593131513447E-01 -1.513367856337E-01
C7  2.310193062933E-01  3.406868486553E-01  3.486632143663E-01
C8 -2.310193062933E-01 -1.593131513447E-01  1.513367856337E-01
H9 -1.984016075002E-01 -1.857582148429E-01 -3.793688617908E-01
H10  1.984016075002E-01  3.142417851571E-01 -1.206311382092E-01
H11  1.984016075002E-01  1.857582148429E-01  3.793688617908E-01
H12 -1.984016075002E-01 -3.142417851571E-01  1.206311382092E-01
C13 -1.449788024680E-01 -4.582439992013E-01 -2.377689340968E-01
C14  1.449788024680E-01  4.175600079867E-02 -2.622310659032E-01
C15  1.449788024680E-01  4.582439992013E-01  2.377689340968E-01
C16 -1.449788024680E-01 -4.175600079867E-02  2.622310659032E-01
H17 -4.241290642056E-02 -3.971540113293E-01 -1.801708577499E-01
H18  4.241290642056E-02  1.028459886707E-01 -3.198291422501E-01
H19  4.241290642056E-02  3.971540113293E-01  1.801708577499E-01
H20 -4.241290642056E-02 -1.028459886707E-01  3.198291422501E-01
C21 -1.888481533584E-01  3.390975350345E-01 -1.972674724123E-01
C22  1.888481533584E-01 -1.609024649655E-01 -3.027325275877E-01
C23  1.888481533584E-01 -3.390975350345E-01  1.972674724123E-01
C24 -1.888481533584E-01  1.609024649655E-01  3.027325275877E-01
H25 -1.195100359010E-01  2.472883387818E-01 -1.089075442297E-01
H26  1.195100359010E-01 -2.527116612182E-01 -3.910924557703E-01
H27  1.195100359010E-01 -2.472883387818E-01  1.089075442297E-01
H28 -1.195100359010E-01  2.527116612182E-01  3.910924557703E-01
C29 -3.174912484737E-01  2.595808330366E-01 -2.689969382374E-01
C30  3.174912484737E-01 -2.404191669634E-01 -2.310030617626E-01
C31  3.174912484737E-01 -2.595808330366E-01  2.689969382374E-01
C32 -3.174912484737E-01  2.404191669634E-01  2.310030617626E-01
H33 -3.509850508166E-01  1.054824878808E-01 -2.378560240434E-01
H34  3.509850508166E-01 -3.945175121192E-01 -2.621439759566E-01
H35  3.509850508166E-01 -1.054824878808E-01  2.378560240434E-01
H36 -3.509850508166E-01  3.945175121192E-01  2.621439759566E-01
C37 -4.106920616899E-01  3.773339247351E-01 -3.855031607008E-01
C38  4.106920616899E-01 -1.226660752649E-01 -1.144968392992E-01
C39  4.106920616899E-01 -3.773339247351E-01  3.855031607008E-01
C40 -4.106920616899E-01  1.226660752649E-01  1.144968392992E-01
C41 -4.568898352561E-01 -3.001699909489E-01  4.603216387667E-01
C42  4.568898352561E-01  1.998300090511E-01  3.967836123328E-02
C43  4.568898352561E-01  3.001699909489E-01 -4.603216387667E-01
C44 -4.568898352561E-01 -1.998300090511E-01 -3.967836123328E-02
H45 -4.234698102761E-01 -1.456576771089E-01  4.294556023338E-01
H46  4.234698102761E-01  3.543423228911E-01  7.054439766620E-02
H47  4.234698102761E-01  1.456576771089E-01 -4.294556023338E-01
H48 -4.234698102761E-01 -3.543423228911E-01 -7.054439766620E-02


#===END

data_OPT_STEP_51

_symmetry_space_group_name_H-M 'P 1'
_cell_length_a      9.61709877
_cell_length_b      6.35617541
_cell_length_c      8.78159465
_cell_angle_alpha   90.000000
_cell_angle_beta  101.824392
_cell_angle_gamma   90.000000

loop_
_atom_site_label
_atom_site_fract_x
_atom_site_fract_y
_atom_site_fract_z
C1 -3.664974797085E-01 -4.174247045484E-01 -4.261595403899E-01
C2  3.664974797085E-01  8.257529545155E-02 -7.384045961008E-02
C3  3.664974797085E-01  4.174247045484E-01  4.261595403899E-01
C4 -3.664974797085E-01 -8.257529545155E-02  7.384045961008E-02
C5 -2.310227151083E-01 -3.406898260647E-01 -3.486651468346E-01
C6  2.310227151083E-01  1.593101739353E-01 -1.513348531654E-01
C7  2.310227151083E-01  3.406898260647E-01  3.486651468346E-01
C8 -2.310227151083E-01 -1.593101739353E-01  1.513348531654E-01
H9 -1.984053409148E-01 -1.857610652975E-01 -3.793693676575E-01
H10  1.984053409148E-01  3.142389347025E-01 -1.206306323425E-01
H11  1.984053409148E-01  1.857610652975E-01  3.793693676575E-01
H12 -1.984053409148E-01 -3.142389347025E-01  1.206306323425E-01
C13 -1.449846874309E-01 -4.582462509052E-01 -2.377706886109E-01
C14  1.449846874309E-01  4.175374909476E-02 -2.622293113891E-01
C15  1.449846874309E-01  4.582462509052E-01  2.377706886109E-01
C16 -1.449846874309E-01 -4.175374909476E-02  2.622293113891E-01
H17 -4.242220011843E-02 -3.971559301888E-01 -1.801689703574E-01
H18  4.242220011843E-02  1.028440698112E-01 -3.198310296426E-01
H19  4.242220011843E-02  3.971559301888E-01  1.801689703574E-01
H20 -4.242220011843E-02 -1.028440698112E-01  3.198310296426E-01
C21 -1.888541343589E-01  3.390954350425E-01 -1.972693903358E-01
C22  1.888541343589E-01 -1.609045649575E-01 -3.027306096642E-01
C23  1.888541343589E-01 -3.390954350425E-01  1.972693903358E-01
C24 -1.888541343589E-01  1.609045649575E-01  3.027306096642E-01
H25 -1.195177115883E-01  2.472872369481E-01 -1.089096442519E-01
H26  1.195177115883E-01 -2.527127630519E-01 -3.910903557481E-01
H27  1.195177115883E-01 -2.472872369481E-01  1.089096442519E-01
H28 -1.195177115883E-01  2.527127630519E-01  3.910903557481E-01
C29 -3.174948962344E-01  2.595796307599E-01 -2.689989879014E-01
C30  3.174948962344E-01 -2.404203692401E-01 -2.310010120986E-01
C31  3.174948962344E-01 -2.595796307599E-01  2.689989879014E-01
C32 -3.174948962344E-01  2.404203692401E-01  2.310010120986E-01
H33 -3.509895065510E-01  1.054823555932E-01 -2.378587517635E-01
H34  3.509895065510E-01 -3.945176444068E-01 -2.621412482365E-01
H35  3.509895065510E-01 -1.054823555932E-01  2.378587517635E-01
H36 -3.509895065510E-01  3.945176444068E-01  2.621412482365E-01
C37 -4.106935395027E-01  3.773332225960E-01 -3.855046269955E-01
C38  4.106935395027E-01 -1.226667774040E-01 -1.144953730045E-01
C39  4.106935395027E-01 -3.773332225960E-01  3.855046269955E-01
C40 -4.106935395027E-01  1.226667774040E-01  1.144953730045E-01
C41 -4.568894584230E-01 -3.001715074996E-01  4.603209549774E-01
C42  4.568894584230E-01  1.998284925004E-01  3.967904502265E-02
C43  4.568894584230E-01  3.001715074996E-01 -4.603209549774E-01
C44 -4.568894584230E-01 -1.998284925004E-01 -3.967904502265E-02
H45 -4.234690870973E-01 -1.456597532795E-01  4.294556022162E-01
H46  4.234690870973E-01  3.543402467205E-01  7.054439778375E-02
H47  4.234690870973E-01  1.456597532795E-01 -4.294556022162E-01
H48 -4.234690870973E-01 -3.543402467205E-01 -7.054439778375E-02


#===END

data_OPT_STEP_52

_symmetry_space_group_name_H-M 'P 1'
_cell_length_a      9.61709877
_cell_length_b      6.35617541
_cell_length_c      8.78159465
_cell_angle_alpha   90.000000
_cell_angle_beta  101.824392
_cell_angle_gamma   90.000000

loop_
_atom_site_label
_atom_site_fract_x
_atom_site_fract_y
_atom_site_fract_z
C1 -3.664974797085E-01 -4.174247045484E-01 -4.261595403899E-01
C2  3.664974797085E-01  8.257529545155E-02 -7.384045961008E-02
C3  3.664974797085E-01  4.174247045484E-01  4.261595403899E-01
C4 -3.664974797085E-01 -8.257529545155E-02  7.384045961008E-02
C5 -2.310227151083E-01 -3.406898260647E-01 -3.486651468346E-01
C6  2.310227151083E-01  1.593101739353E-01 -1.513348531654E-01
C7  2.310227151083E-01  3.406898260647E-01  3.486651468346E-01
C8 -2.310227151083E-01 -1.593101739353E-01  1.513348531654E-01
H9 -1.984053409148E-01 -1.857610652975E-01 -3.793693676575E-01
H10  1.984053409148E-01  3.142389347025E-01 -1.206306323425E-01
H11  1.984053409148E-01  1.857610652975E-01  3.793693676575E-01
H12 -1.984053409148E-01 -3.142389347025E-01  1.206306323425E-01
C13 -1.449846874309E-01 -4.582462509052E-01 -2.377706886109E-01
C14  1.449846874309E-01  4.175374909476E-02 -2.622293113891E-01
C15  1.449846874309E-01  4.582462509052E-01  2.377706886109E-01
C16 -1.449846874309E-01 -4.175374909476E-02  2.622293113891E-01
H17 -4.242220011843E-02 -3.971559301888E-01 -1.801689703574E-01
H18  4.242220011843E-02  1.028440698112E-01 -3.198310296426E-01
H19  4.242220011843E-02  3.971559301888E-01  1.801689703574E-01
H20 -4.242220011843E-02 -1.028440698112E-01  3.198310296426E-01
C21 -1.888541343589E-01  3.390954350425E-01 -1.972693903358E-01
C22  1.888541343589E-01 -1.609045649575E-01 -3.027306096642E-01
C23  1.888541343589E-01 -3.390954350425E-01  1.972693903358E-01
C24 -1.888541343589E-01  1.609045649575E-01  3.027306096642E-01
H25 -1.195177115883E-01  2.472872369481E-01 -1.089096442519E-01
H26  1.195177115883E-01 -2.527127630519E-01 -3.910903557481E-01
H27  1.195177115883E-01 -2.472872369481E-01  1.089096442519E-01
H28 -1.195177115883E-01  2.527127630519E-01  3.910903557481E-01
C29 -3.174948962344E-01  2.595796307599E-01 -2.689989879014E-01
C30  3.174948962344E-01 -2.404203692401E-01 -2.310010120986E-01
C31  3.174948962344E-01 -2.595796307599E-01  2.689989879014E-01
C32 -3.174948962344E-01  2.404203692401E-01  2.310010120986E-01
H33 -3.509895065510E-01  1.054823555932E-01 -2.378587517635E-01
H34  3.509895065510E-01 -3.945176444068E-01 -2.621412482365E-01
H35  3.509895065510E-01 -1.054823555932E-01  2.378587517635E-01
H36 -3.509895065510E-01  3.945176444068E-01  2.621412482365E-01
C37 -4.106935395027E-01  3.773332225960E-01 -3.855046269955E-01
C38  4.106935395027E-01 -1.226667774040E-01 -1.144953730045E-01
C39  4.106935395027E-01 -3.773332225960E-01  3.855046269955E-01
C40 -4.106935395027E-01  1.226667774040E-01  1.144953730045E-01
C41 -4.568894584230E-01 -3.001715074996E-01  4.603209549774E-01
C42  4.568894584230E-01  1.998284925004E-01  3.967904502265E-02
C43  4.568894584230E-01  3.001715074996E-01 -4.603209549774E-01
C44 -4.568894584230E-01 -1.998284925004E-01 -3.967904502265E-02
H45 -4.234690870973E-01 -1.456597532795E-01  4.294556022162E-01
H46  4.234690870973E-01  3.543402467205E-01  7.054439778375E-02
H47  4.234690870973E-01  1.456597532795E-01 -4.294556022162E-01
H48 -4.234690870973E-01 -3.543402467205E-01 -7.054439778375E-02


#===END
