###############################################################################
#
#                    CRYSTAL17 CIF FILE
#
###############################################################################

data_OPT_STEP_1

_symmetry_space_group_name_H-M 'P 1'
_cell_length_a      6.30600000
_cell_length_b      7.69700000
_cell_length_c     16.48000000
_cell_angle_alpha   98.769997
_cell_angle_beta   91.250000
_cell_angle_gamma   95.809998

loop_
_atom_site_label
_atom_site_fract_x
_atom_site_fract_y
_atom_site_fract_z
C1  3.360000000000E-02  2.365000000000E-01  3.296600000000E-01
C2 -3.360000000000E-02 -2.365000000000E-01 -3.296600000000E-01
C3  8.440000000000E-02  3.453000000000E-01  4.023000000000E-01
C4 -8.440000000000E-02 -3.453000000000E-01 -4.023000000000E-01
C5  2.919000000000E-01  4.442000000000E-01  4.161300000000E-01
C6 -2.919000000000E-01 -4.442000000000E-01 -4.161300000000E-01
C7  4.389000000000E-01  4.293000000000E-01  3.574500000000E-01
C8 -4.389000000000E-01 -4.293000000000E-01 -3.574500000000E-01
C9  3.944000000000E-01  3.167000000000E-01  2.800400000000E-01
C10 -3.944000000000E-01 -3.167000000000E-01 -2.800400000000E-01
C11  1.854000000000E-01  2.159000000000E-01  2.658600000000E-01
C12 -1.854000000000E-01 -2.159000000000E-01 -2.658600000000E-01
C13  1.384000000000E-01  1.053000000000E-01  1.917800000000E-01
C14 -1.384000000000E-01 -1.053000000000E-01 -1.917800000000E-01
C15  2.889000000000E-01  8.430000000000E-02  1.295200000000E-01
C16 -2.889000000000E-01 -8.430000000000E-02 -1.295200000000E-01
C17  4.992000000000E-01  1.857000000000E-01  1.435400000000E-01
C18 -4.992000000000E-01 -1.857000000000E-01 -1.435400000000E-01
C19 -4.588000000000E-01  2.984000000000E-01  2.188900000000E-01
C20  4.588000000000E-01 -2.984000000000E-01 -2.188900000000E-01
C21  2.445000000000E-01 -2.930000000000E-02  5.449000000000E-02
C22 -2.445000000000E-01  2.930000000000E-02 -5.449000000000E-02
C23  3.951000000000E-01 -5.100000000000E-02 -7.000000000000E-03
C24 -3.951000000000E-01  5.100000000000E-02  7.000000000000E-03
C25 -3.512000000000E-01  1.645000000000E-01  8.197000000000E-02
C26  3.512000000000E-01 -1.645000000000E-01 -8.197000000000E-02
C27 -4.526000000000E-01 -1.129000000000E-01  3.066000000000E-01
C28  4.526000000000E-01  1.129000000000E-01 -3.066000000000E-01
C29 -4.127000000000E-01 -7.170000000000E-02  3.889200000000E-01
C30  4.127000000000E-01  7.170000000000E-02 -3.889200000000E-01
C31 -2.229000000000E-01 -1.218000000000E-01  4.252600000000E-01
C32  2.229000000000E-01  1.218000000000E-01 -4.252600000000E-01
C33 -8.220000000000E-02 -2.096000000000E-01  3.782600000000E-01
C34  8.220000000000E-02  2.096000000000E-01 -3.782600000000E-01
C35 -1.169000000000E-01 -2.567000000000E-01  2.911100000000E-01
C36  1.169000000000E-01  2.567000000000E-01 -2.911100000000E-01
C37 -3.091000000000E-01 -2.059000000000E-01  2.538500000000E-01
C38  3.091000000000E-01  2.059000000000E-01 -2.538500000000E-01
C39 -3.463000000000E-01 -2.500000000000E-01  1.690900000000E-01
C40  3.463000000000E-01  2.500000000000E-01 -1.690900000000E-01
C41 -2.026000000000E-01 -3.408000000000E-01  1.176500000000E-01
C42  2.026000000000E-01  3.408000000000E-01 -1.176500000000E-01
C43 -1.030000000000E-02 -3.909000000000E-01  1.550900000000E-01
C44  1.030000000000E-02  3.909000000000E-01 -1.550900000000E-01
C45  2.500000000000E-02 -3.462000000000E-01  2.412200000000E-01
C46 -2.500000000000E-02  3.462000000000E-01 -2.412200000000E-01
C47 -2.388000000000E-01 -3.843000000000E-01  3.263000000000E-02
C48  2.388000000000E-01  3.843000000000E-01 -3.263000000000E-02
C49 -9.600000000000E-02 -4.745000000000E-01 -1.897000000000E-02
C50  9.600000000000E-02  4.745000000000E-01  1.897000000000E-02
C51  1.320000000000E-01 -4.813000000000E-01  1.045600000000E-01
C52 -1.320000000000E-01  4.813000000000E-01 -1.045600000000E-01
H53 -1.015000000000E-01  1.745000000000E-01  3.212000000000E-01
H54  1.015000000000E-01 -1.745000000000E-01 -3.212000000000E-01
H55 -1.530000000000E-02  3.557000000000E-01  4.431000000000E-01
H56  1.530000000000E-02 -3.557000000000E-01 -4.431000000000E-01
H57  3.251000000000E-01 -4.813000000000E-01  4.657000000000E-01
H58 -3.251000000000E-01  4.813000000000E-01 -4.657000000000E-01
H59 -4.278000000000E-01  4.938000000000E-01  3.676000000000E-01
H60  4.278000000000E-01 -4.938000000000E-01 -3.676000000000E-01
H61  3.700000000000E-03  4.290000000000E-02  1.827000000000E-01
H62 -3.700000000000E-03 -4.290000000000E-02 -1.827000000000E-01
H63 -3.259000000000E-01  3.638000000000E-01  2.281000000000E-01
H64  3.259000000000E-01 -3.638000000000E-01 -2.281000000000E-01
H65  1.103000000000E-01 -9.260000000000E-02  4.520000000000E-02
H66 -1.103000000000E-01  9.260000000000E-02 -4.520000000000E-02
H67 -2.174000000000E-01  2.283000000000E-01  9.120000000000E-02
H68  2.174000000000E-01 -2.283000000000E-01 -9.120000000000E-02
H69  4.241000000000E-01 -8.020000000000E-02  2.838000000000E-01
H70 -4.241000000000E-01  8.020000000000E-02 -2.838000000000E-01
H71  4.921000000000E-01 -1.130000000000E-02  4.218000000000E-01
H72 -4.921000000000E-01  1.130000000000E-02 -4.218000000000E-01
H73 -1.965000000000E-01 -9.340000000000E-02  4.817000000000E-01
H74  1.965000000000E-01  9.340000000000E-02 -4.817000000000E-01
H75  3.960000000000E-02 -2.400000000000E-01  4.031000000000E-01
H76 -3.960000000000E-02  2.400000000000E-01 -4.031000000000E-01
H77 -4.695000000000E-01 -2.188000000000E-01  1.456000000000E-01
H78  4.695000000000E-01  2.188000000000E-01 -1.456000000000E-01
H79  1.474000000000E-01 -3.777000000000E-01  2.653000000000E-01
H80 -1.474000000000E-01  3.777000000000E-01 -2.653000000000E-01
H81 -3.618000000000E-01 -3.526000000000E-01  9.100000000000E-03
H82  3.618000000000E-01  3.526000000000E-01 -9.100000000000E-03
H83  2.544000000000E-01  4.868000000000E-01  1.284000000000E-01
H84 -2.544000000000E-01 -4.868000000000E-01 -1.284000000000E-01


#===END

data_OPT_STEP_2

_symmetry_space_group_name_H-M 'P 1'
_cell_length_a      6.30600000
_cell_length_b      7.69700000
_cell_length_c     16.48000000
_cell_angle_alpha   98.769997
_cell_angle_beta   91.250000
_cell_angle_gamma   95.809998

loop_
_atom_site_label
_atom_site_fract_x
_atom_site_fract_y
_atom_site_fract_z
C1  3.360000000000E-02  2.365000000000E-01  3.296600000000E-01
C2 -3.360000000000E-02 -2.365000000000E-01 -3.296600000000E-01
C3  8.440000000000E-02  3.453000000000E-01  4.023000000000E-01
C4 -8.440000000000E-02 -3.453000000000E-01 -4.023000000000E-01
C5  2.919000000000E-01  4.442000000000E-01  4.161300000000E-01
C6 -2.919000000000E-01 -4.442000000000E-01 -4.161300000000E-01
C7  4.389000000000E-01  4.293000000000E-01  3.574500000000E-01
C8 -4.389000000000E-01 -4.293000000000E-01 -3.574500000000E-01
C9  3.944000000000E-01  3.167000000000E-01  2.800400000000E-01
C10 -3.944000000000E-01 -3.167000000000E-01 -2.800400000000E-01
C11  1.854000000000E-01  2.159000000000E-01  2.658600000000E-01
C12 -1.854000000000E-01 -2.159000000000E-01 -2.658600000000E-01
C13  1.384000000000E-01  1.053000000000E-01  1.917800000000E-01
C14 -1.384000000000E-01 -1.053000000000E-01 -1.917800000000E-01
C15  2.889000000000E-01  8.430000000000E-02  1.295200000000E-01
C16 -2.889000000000E-01 -8.430000000000E-02 -1.295200000000E-01
C17  4.992000000000E-01  1.857000000000E-01  1.435400000000E-01
C18 -4.992000000000E-01 -1.857000000000E-01 -1.435400000000E-01
C19 -4.588000000000E-01  2.984000000000E-01  2.188900000000E-01
C20  4.588000000000E-01 -2.984000000000E-01 -2.188900000000E-01
C21  2.445000000000E-01 -2.930000000000E-02  5.449000000000E-02
C22 -2.445000000000E-01  2.930000000000E-02 -5.449000000000E-02
C23  3.951000000000E-01 -5.100000000000E-02 -7.000000000000E-03
C24 -3.951000000000E-01  5.100000000000E-02  7.000000000000E-03
C25 -3.512000000000E-01  1.645000000000E-01  8.197000000000E-02
C26  3.512000000000E-01 -1.645000000000E-01 -8.197000000000E-02
C27 -4.526000000000E-01 -1.129000000000E-01  3.066000000000E-01
C28  4.526000000000E-01  1.129000000000E-01 -3.066000000000E-01
C29 -4.127000000000E-01 -7.170000000000E-02  3.889200000000E-01
C30  4.127000000000E-01  7.170000000000E-02 -3.889200000000E-01
C31 -2.229000000000E-01 -1.218000000000E-01  4.252600000000E-01
C32  2.229000000000E-01  1.218000000000E-01 -4.252600000000E-01
C33 -8.220000000000E-02 -2.096000000000E-01  3.782600000000E-01
C34  8.220000000000E-02  2.096000000000E-01 -3.782600000000E-01
C35 -1.169000000000E-01 -2.567000000000E-01  2.911100000000E-01
C36  1.169000000000E-01  2.567000000000E-01 -2.911100000000E-01
C37 -3.091000000000E-01 -2.059000000000E-01  2.538500000000E-01
C38  3.091000000000E-01  2.059000000000E-01 -2.538500000000E-01
C39 -3.463000000000E-01 -2.500000000000E-01  1.690900000000E-01
C40  3.463000000000E-01  2.500000000000E-01 -1.690900000000E-01
C41 -2.026000000000E-01 -3.408000000000E-01  1.176500000000E-01
C42  2.026000000000E-01  3.408000000000E-01 -1.176500000000E-01
C43 -1.030000000000E-02 -3.909000000000E-01  1.550900000000E-01
C44  1.030000000000E-02  3.909000000000E-01 -1.550900000000E-01
C45  2.500000000000E-02 -3.462000000000E-01  2.412200000000E-01
C46 -2.500000000000E-02  3.462000000000E-01 -2.412200000000E-01
C47 -2.388000000000E-01 -3.843000000000E-01  3.263000000000E-02
C48  2.388000000000E-01  3.843000000000E-01 -3.263000000000E-02
C49 -9.600000000000E-02 -4.745000000000E-01 -1.897000000000E-02
C50  9.600000000000E-02  4.745000000000E-01  1.897000000000E-02
C51  1.320000000000E-01 -4.813000000000E-01  1.045600000000E-01
C52 -1.320000000000E-01  4.813000000000E-01 -1.045600000000E-01
H53 -1.015000000000E-01  1.745000000000E-01  3.212000000000E-01
H54  1.015000000000E-01 -1.745000000000E-01 -3.212000000000E-01
H55 -1.530000000000E-02  3.557000000000E-01  4.431000000000E-01
H56  1.530000000000E-02 -3.557000000000E-01 -4.431000000000E-01
H57  3.251000000000E-01 -4.813000000000E-01  4.657000000000E-01
H58 -3.251000000000E-01  4.813000000000E-01 -4.657000000000E-01
H59 -4.278000000000E-01  4.938000000000E-01  3.676000000000E-01
H60  4.278000000000E-01 -4.938000000000E-01 -3.676000000000E-01
H61  3.700000000000E-03  4.290000000000E-02  1.827000000000E-01
H62 -3.700000000000E-03 -4.290000000000E-02 -1.827000000000E-01
H63 -3.259000000000E-01  3.638000000000E-01  2.281000000000E-01
H64  3.259000000000E-01 -3.638000000000E-01 -2.281000000000E-01
H65  1.103000000000E-01 -9.260000000000E-02  4.520000000000E-02
H66 -1.103000000000E-01  9.260000000000E-02 -4.520000000000E-02
H67 -2.174000000000E-01  2.283000000000E-01  9.120000000000E-02
H68  2.174000000000E-01 -2.283000000000E-01 -9.120000000000E-02
H69  4.241000000000E-01 -8.020000000000E-02  2.838000000000E-01
H70 -4.241000000000E-01  8.020000000000E-02 -2.838000000000E-01
H71  4.921000000000E-01 -1.130000000000E-02  4.218000000000E-01
H72 -4.921000000000E-01  1.130000000000E-02 -4.218000000000E-01
H73 -1.965000000000E-01 -9.340000000000E-02  4.817000000000E-01
H74  1.965000000000E-01  9.340000000000E-02 -4.817000000000E-01
H75  3.960000000000E-02 -2.400000000000E-01  4.031000000000E-01
H76 -3.960000000000E-02  2.400000000000E-01 -4.031000000000E-01
H77 -4.695000000000E-01 -2.188000000000E-01  1.456000000000E-01
H78  4.695000000000E-01  2.188000000000E-01 -1.456000000000E-01
H79  1.474000000000E-01 -3.777000000000E-01  2.653000000000E-01
H80 -1.474000000000E-01  3.777000000000E-01 -2.653000000000E-01
H81 -3.618000000000E-01 -3.526000000000E-01  9.100000000000E-03
H82  3.618000000000E-01  3.526000000000E-01 -9.100000000000E-03
H83  2.544000000000E-01  4.868000000000E-01  1.284000000000E-01
H84 -2.544000000000E-01 -4.868000000000E-01 -1.284000000000E-01


#===END

data_OPT_STEP_3

_symmetry_space_group_name_H-M 'P 1'
_cell_length_a      6.33936995
_cell_length_b      7.72672704
_cell_length_c     16.50236303
_cell_angle_alpha   98.885895
_cell_angle_beta   91.136187
_cell_angle_gamma   95.692849

loop_
_atom_site_label
_atom_site_fract_x
_atom_site_fract_y
_atom_site_fract_z
C1  3.523343286508E-02  2.365326987442E-01  3.287812646924E-01
C2 -3.523343286508E-02 -2.365326987442E-01 -3.287812646924E-01
C3  8.505302670970E-02  3.455208975507E-01  4.011784705231E-01
C4 -8.505302670970E-02 -3.455208975507E-01 -4.011784705231E-01
C5  2.913346753773E-01  4.429130041873E-01  4.152222638007E-01
C6 -2.913346753773E-01 -4.429130041873E-01 -4.152222638007E-01
C7  4.381740327251E-01  4.283215891437E-01  3.565387160788E-01
C8 -4.381740327251E-01 -4.283215891437E-01 -3.565387160788E-01
C9  3.944159160246E-01  3.152242984314E-01  2.794453658734E-01
C10 -3.944159160246E-01 -3.152242984314E-01 -2.794453658734E-01
C11  1.861028096937E-01  2.166408405309E-01  2.649619982866E-01
C12 -1.861028096937E-01 -2.166408405309E-01 -2.649619982866E-01
C13  1.396930698295E-01  1.057698734949E-01  1.911228283834E-01
C14 -1.396930698295E-01 -1.057698734949E-01 -1.911228283834E-01
C15  2.896362489382E-01  8.503009766316E-02  1.289186072732E-01
C16 -2.896362489382E-01 -8.503009766316E-02 -1.289186072732E-01
C17  4.990214997202E-01  1.843219630876E-01  1.432398131629E-01
C18 -4.990214997202E-01 -1.843219630876E-01 -1.432398131629E-01
C19 -4.585989020653E-01  2.967462348580E-01  2.186025249768E-01
C20  4.585989020653E-01 -2.967462348580E-01 -2.186025249768E-01
C21  2.455012033425E-01 -2.854158426286E-02  5.427705088984E-02
C22 -2.455012033425E-01  2.854158426286E-02 -5.427705088984E-02
C23  3.953462905031E-01 -4.964648951163E-02 -7.211682661515E-03
C24 -3.953462905031E-01  4.964648951163E-02  7.211682661515E-03
C25 -3.519221639629E-01  1.636228068748E-01  8.184436542896E-02
C26  3.519221639629E-01 -1.636228068748E-01 -8.184436542896E-02
C27 -4.508146896974E-01 -1.149751573991E-01  3.059456633034E-01
C28  4.508146896974E-01  1.149751573991E-01 -3.059456633034E-01
C29 -4.108251524257E-01 -7.361212339852E-02  3.881939815715E-01
C30  4.108251524257E-01  7.361212339852E-02 -3.881939815715E-01
C31 -2.223519049843E-01 -1.232387981610E-01  4.244271322628E-01
C32  2.223519049843E-01  1.232387981610E-01 -4.244271322628E-01
C33 -8.175533463985E-02 -2.107295161467E-01  3.773182318489E-01
C34  8.175533463985E-02  2.107295161467E-01 -3.773182318489E-01
C35 -1.160002395058E-01 -2.569136842697E-01  2.902397649938E-01
C36  1.160002395058E-01  2.569136842697E-01 -2.902397649938E-01
C37 -3.077240377496E-01 -2.077669931827E-01  2.533203980984E-01
C38  3.077240377496E-01  2.077669931827E-01 -2.533203980984E-01
C39 -3.446569460284E-01 -2.510022777221E-01  1.688499588044E-01
C40  3.446569460284E-01  2.510022777221E-01 -1.688499588044E-01
C41 -2.018092038305E-01 -3.419956344580E-01  1.174831543133E-01
C42  2.018092038305E-01  3.419956344580E-01 -1.174831543133E-01
C43 -1.033860272562E-02 -3.912165646524E-01  1.545944098763E-01
C44  1.033860272562E-02  3.912165646524E-01 -1.545944098763E-01
C45  2.507205155956E-02 -3.466018268903E-01  2.405392237527E-01
C46 -2.507205155956E-02  3.466018268903E-01 -2.405392237527E-01
C47 -2.380318319718E-01 -3.851848633707E-01  3.263754452097E-02
C48  2.380318319718E-01  3.851848633707E-01 -3.263754452097E-02
C49 -9.594204479616E-02 -4.754687811004E-01 -1.873617248194E-02
C50  9.594204479616E-02  4.754687811004E-01  1.873617248194E-02
C51  1.316810408140E-01 -4.809857842813E-01  1.041458296292E-01
C52 -1.316810408140E-01  4.809857842813E-01 -1.041458296292E-01
H53 -1.029168574038E-01  1.710499592588E-01  3.202477435090E-01
H54  1.029168574038E-01 -1.710499592588E-01 -3.202477435090E-01
H55 -1.793397982751E-02  3.567897167182E-01  4.433399932072E-01
H56  1.793397982751E-02 -3.567897167182E-01 -4.433399932072E-01
H57  3.255991462070E-01 -4.810869246954E-01  4.667272356344E-01
H58 -3.255991462070E-01  4.810869246954E-01 -4.667272356344E-01
H59 -4.249958051602E-01  4.955152337513E-01  3.667061693207E-01
H60  4.249958051602E-01 -4.955152337513E-01 -3.667061693207E-01
H61  1.730048685452E-03  4.020379316602E-02  1.820114556184E-01
H62 -1.730048685452E-03 -4.020379316602E-02 -1.820114556184E-01
H63 -3.213871698725E-01  3.634075368575E-01  2.282745213997E-01
H64  3.213871698725E-01 -3.634075368575E-01 -2.282745213997E-01
H65  1.079220538336E-01 -9.477898474698E-02  4.498310952882E-02
H66 -1.079220538336E-01  9.477898474698E-02 -4.498310952882E-02
H67 -2.145048550350E-01  2.299280530953E-01  9.124004251757E-02
H68  2.145048550350E-01 -2.299280530953E-01 -9.124004251757E-02
H69  4.225205816627E-01 -8.098014177099E-02  2.822708145399E-01
H70 -4.225205816627E-01  8.098014177099E-02 -2.822708145399E-01
H71  4.918429591192E-01 -1.028879573401E-02  4.223280422485E-01
H72 -4.918429591192E-01  1.028879573401E-02 -4.223280422485E-01
H73 -1.950833847228E-01 -9.323533531721E-02  4.827764965831E-01
H74  1.950833847228E-01  9.323533531721E-02 -4.827764965831E-01
H75  4.352428164419E-02 -2.427385836923E-01  4.028294405013E-01
H76 -4.352428164419E-02  2.427385836923E-01 -4.028294405013E-01
H77 -4.709987696418E-01 -2.178567383563E-01  1.445904546068E-01
H78  4.709987696418E-01  2.178567383563E-01 -1.445904546068E-01
H79  1.509799493255E-01 -3.794434585094E-01  2.653517107473E-01
H80 -1.509799493255E-01  3.794434585094E-01 -2.653517107473E-01
H81 -3.644302189326E-01 -3.520252820436E-01  8.340352025636E-03
H82  3.644302189326E-01  3.520252820436E-01 -8.340352025636E-03
H83  2.577380303410E-01  4.859680874913E-01  1.287017371456E-01
H84 -2.577380303410E-01 -4.859680874913E-01 -1.287017371456E-01


#===END

data_OPT_STEP_4

_symmetry_space_group_name_H-M 'P 1'
_cell_length_a      6.42223245
_cell_length_b      7.77477406
_cell_length_c     16.54949424
_cell_angle_alpha   99.067046
_cell_angle_beta   90.863315
_cell_angle_gamma   95.465356

loop_
_atom_site_label
_atom_site_fract_x
_atom_site_fract_y
_atom_site_fract_z
C1  3.890086211312E-02  2.381768408243E-01  3.278351221272E-01
C2 -3.890086211312E-02 -2.381768408243E-01 -3.278351221272E-01
C3  8.897512959706E-02  3.436349835018E-01  4.006621705213E-01
C4 -8.897512959706E-02 -3.436349835018E-01 -4.006621705213E-01
C5  2.898253766455E-01  4.431522487698E-01  4.139235041210E-01
C6 -2.898253766455E-01 -4.431522487698E-01 -4.139235041210E-01
C7  4.368116225132E-01  4.264826514348E-01  3.556813067749E-01
C8 -4.368116225132E-01 -4.264826514348E-01 -3.556813067749E-01
C9  3.903392869121E-01  3.201352596452E-01  2.772444717795E-01
C10 -3.903392869121E-01 -3.201352596452E-01 -2.772444717795E-01
C11  1.896089480043E-01  2.152039181877E-01  2.647841963049E-01
C12 -1.896089480043E-01 -2.152039181877E-01 -2.647841963049E-01
C13  1.436523289523E-01  1.058950619080E-01  1.908776263088E-01
C14 -1.436523289523E-01 -1.058950619080E-01 -1.908776263088E-01
C15  2.925425698733E-01  8.429717624692E-02  1.288120497013E-01
C16 -2.925425698733E-01 -8.429717624692E-02 -1.288120497013E-01
C17  4.949060620926E-01  1.881094958071E-01  1.415193332189E-01
C18 -4.949060620926E-01 -1.881094958071E-01 -1.415193332189E-01
C19 -4.626269626239E-01  3.000999505175E-01  2.169544477702E-01
C20  4.626269626239E-01 -3.000999505175E-01 -2.169544477702E-01
C21  2.489477365999E-01 -2.810629412075E-02  5.443770827238E-02
C22 -2.489477365999E-01  2.810629412075E-02 -5.443770827238E-02
C23  3.997403438254E-01 -5.359338249678E-02 -5.948438939067E-03
C24 -3.997403438254E-01  5.359338249678E-02  5.948438939067E-03
C25 -3.551047534329E-01  1.634767290588E-01  8.134837147098E-02
C26  3.551047534329E-01 -1.634767290588E-01 -8.134837147098E-02
C27 -4.471920468453E-01 -1.160187550554E-01  3.054163834859E-01
C28  4.471920468453E-01  1.160187550554E-01 -3.054163834859E-01
C29 -4.080111142976E-01 -7.540529706370E-02  3.875229753137E-01
C30  4.080111142976E-01  7.540529706370E-02 -3.875229753137E-01
C31 -2.229324728766E-01 -1.250348259561E-01  4.234401179464E-01
C32  2.229324728766E-01  1.250348259561E-01 -4.234401179464E-01
C33 -8.363882291228E-02 -2.126936210835E-01  3.761584637590E-01
C34  8.363882291228E-02  2.126936210835E-01 -3.761584637590E-01
C35 -1.203874658696E-01 -2.629878824727E-01  2.896166740968E-01
C36  1.203874658696E-01  2.629878824727E-01 -2.896166740968E-01
C37 -3.049305480067E-01 -2.083012006434E-01  2.527776263943E-01
C38  3.049305480067E-01  2.083012006434E-01 -2.527776263943E-01
C39 -3.424050899393E-01 -2.529172106735E-01  1.688817150914E-01
C40  3.424050899393E-01  2.529172106735E-01 -1.688817150914E-01
C41 -1.992334140347E-01 -3.413332027375E-01  1.172580295140E-01
C42  1.992334140347E-01  3.413332027375E-01 -1.172580295140E-01
C43 -1.246356371861E-02 -3.928559700592E-01  1.540602017799E-01
C44  1.246356371861E-02  3.928559700592E-01 -1.540602017799E-01
C45  2.225839907822E-02 -3.481959545876E-01  2.397689329410E-01
C46 -2.225839907822E-02  3.481959545876E-01 -2.397689329410E-01
C47 -2.349951036916E-01 -3.849847265371E-01  3.269028872527E-02
C48  2.349951036916E-01  3.849847265371E-01 -3.269028872527E-02
C49 -9.184024123006E-02 -4.718593143607E-01 -1.866491138123E-02
C50  9.184024123006E-02  4.718593143607E-01  1.866491138123E-02
C51  1.285178913753E-01 -4.820389690327E-01  1.036418339108E-01
C52 -1.285178913753E-01  4.820389690327E-01 -1.036418339108E-01
H53 -9.970920503051E-02  1.641756934713E-01  3.200888127393E-01
H54  9.970920503051E-02 -1.641756934713E-01 -3.200888127393E-01
H55 -1.791978833371E-02  3.559603669550E-01  4.443570139620E-01
H56  1.791978833371E-02 -3.559603669550E-01 -4.443570139620E-01
H57  3.256164304812E-01 -4.802040313107E-01  4.680627878996E-01
H58 -3.256164304812E-01  4.802040313107E-01 -4.680627878996E-01
H59 -4.227854983351E-01  4.966405179638E-01  3.656080621835E-01
H60  4.227854983351E-01 -4.966405179638E-01 -3.656080621835E-01
H61  4.924917986794E-03  3.216987784972E-02  1.828185034084E-01
H62 -4.924917986794E-03 -3.216987784972E-02 -1.828185034084E-01
H63 -3.161945292529E-01  3.596604918212E-01  2.291258791242E-01
H64  3.161945292529E-01 -3.596604918212E-01 -2.291258791242E-01
H65  1.092347688888E-01 -9.986104212377E-02  4.571622835466E-02
H66 -1.092347688888E-01  9.986104212377E-02 -4.571622835466E-02
H67 -2.135103348039E-01  2.315095277742E-01  9.117908986828E-02
H68  2.135103348039E-01 -2.315095277742E-01 -9.117908986828E-02
H69  4.228268616058E-01 -8.066313431047E-02  2.806308079414E-01
H70 -4.228268616058E-01  8.066313431047E-02 -2.806308079414E-01
H71  4.950720862169E-01 -5.065650040480E-03  4.231303827333E-01
H72 -4.950720862169E-01  5.065650040480E-03 -4.231303827333E-01
H73 -1.930927662000E-01 -9.082436615810E-02  4.838814521957E-01
H74  1.930927662000E-01  9.082436615810E-02 -4.838814521957E-01
H75  4.578469557769E-02 -2.461152408249E-01  4.021435473008E-01
H76 -4.578469557769E-02  2.461152408249E-01 -4.021435473008E-01
H77 -4.709131182497E-01 -2.160723629464E-01  1.436666893756E-01
H78  4.709131182497E-01  2.160723629464E-01 -1.436666893756E-01
H79  1.536696877194E-01 -3.798458566728E-01  2.651733441067E-01
H80 -1.536696877194E-01  3.798458566728E-01 -2.651733441067E-01
H81 -3.657894286429E-01 -3.516446898367E-01  7.583965535066E-03
H82  3.657894286429E-01  3.516446898367E-01 -7.583965535066E-03
H83  2.609364299664E-01  4.873857133052E-01  1.287374742453E-01
H84 -2.609364299664E-01 -4.873857133052E-01 -1.287374742453E-01


#===END

data_OPT_STEP_5

_symmetry_space_group_name_H-M 'P 1'
_cell_length_a      6.56085699
_cell_length_b      7.83368622
_cell_length_c     16.56601118
_cell_angle_alpha   99.116959
_cell_angle_beta   90.491353
_cell_angle_gamma   94.919886

loop_
_atom_site_label
_atom_site_fract_x
_atom_site_fract_y
_atom_site_fract_z
C1  4.678173877601E-02  2.350473640256E-01  3.286055894551E-01
C2 -4.678173877601E-02 -2.350473640256E-01 -3.286055894551E-01
C3  8.968831368399E-02  3.482988848644E-01  3.991766001191E-01
C4 -8.968831368399E-02 -3.482988848644E-01 -3.991766001191E-01
C5  2.880032630270E-01  4.402983516441E-01  4.136929598497E-01
C6 -2.880032630270E-01 -4.402983516441E-01 -4.136929598497E-01
C7  4.285723250342E-01  4.314220630558E-01  3.534062839342E-01
C8 -4.285723250342E-01 -4.314220630558E-01 -3.534062839342E-01
C9  3.923332932512E-01  3.113504810148E-01  2.784985291055E-01
C10 -3.923332932512E-01 -3.113504810148E-01 -2.784985291055E-01
C11  1.851776878139E-01  2.295703416149E-01  2.611747073698E-01
C12 -1.851776878139E-01 -2.295703416149E-01 -2.611747073698E-01
C13  1.459973425766E-01  1.128225068667E-01  1.894323040457E-01
C14 -1.459973425766E-01 -1.128225068667E-01 -1.894323040457E-01
C15  2.889462349252E-01  9.718603136008E-02  1.256140469146E-01
C16 -2.889462349252E-01 -9.718603136008E-02 -1.256140469146E-01
C17  4.957289440692E-01  1.808974433379E-01  1.425785866888E-01
C18 -4.957289440692E-01 -1.808974433379E-01 -1.425785866888E-01
C19 -4.607410827022E-01  2.878616597683E-01  2.190486302550E-01
C20  4.607410827022E-01 -2.878616597683E-01 -2.190486302550E-01
C21  2.514835210273E-01 -2.210092113199E-02  5.356194524484E-02
C22 -2.514835210273E-01  2.210092113199E-02 -5.356194524484E-02
C23  3.946488408994E-01 -3.860321856499E-02 -9.341392725483E-03
C24 -3.946488408994E-01  3.860321856499E-02  9.341392725483E-03
C25 -3.594270774794E-01  1.611839565386E-01  8.119473857851E-02
C26  3.594270774794E-01 -1.611839565386E-01 -8.119473857851E-02
C27 -4.465462119190E-01 -1.242561688561E-01  3.058226832959E-01
C28  4.465462119190E-01  1.242561688561E-01 -3.058226832959E-01
C29 -4.033401197777E-01 -7.651813098358E-02  3.872783625384E-01
C30  4.033401197777E-01  7.651813098358E-02 -3.872783625384E-01
C31 -2.201925209412E-01 -1.226391408523E-01  4.226657329780E-01
C32  2.201925209412E-01  1.226391408523E-01 -4.226657329780E-01
C33 -8.633247908741E-02 -2.154151785906E-01  3.755211308281E-01
C34  8.633247908741E-02  2.154151785906E-01 -3.755211308281E-01
C35 -1.159493630447E-01 -2.565654133374E-01  2.885153890720E-01
C36  1.159493630447E-01  2.565654133374E-01 -2.885153890720E-01
C37 -3.105088758419E-01 -2.226344921364E-01  2.535020358827E-01
C38  3.105088758419E-01  2.226344921364E-01 -2.535020358827E-01
C39 -3.420395267648E-01 -2.599486826375E-01  1.694670378400E-01
C40  3.420395267648E-01  2.599486826375E-01 -1.694670378400E-01
C41 -2.053220878437E-01 -3.545333278097E-01  1.180873727773E-01
C42  2.053220878437E-01  3.545333278097E-01 -1.180873727773E-01
C43 -1.297462581067E-02 -3.918568697623E-01  1.535116937907E-01
C44  1.297462581067E-02  3.918568697623E-01 -1.535116937907E-01
C45  2.166690935293E-02 -3.456806810251E-01  2.389252805953E-01
C46 -2.166690935293E-02  3.456806810251E-01 -2.389252805953E-01
C47 -2.382378045331E-01 -3.957479629300E-01  3.357453710489E-02
C48  2.382378045331E-01  3.957479629300E-01 -3.357453710489E-02
C49 -1.002211992712E-01 -4.870187736215E-01 -1.740585993465E-02
C50  1.002211992712E-01  4.870187736215E-01  1.740585993465E-02
C51  1.312058110105E-01 -4.731526255619E-01  1.025804579285E-01
C52 -1.312058110105E-01  4.731526255619E-01 -1.025804579285E-01
H53 -8.595175616264E-02  1.461801213007E-01  3.235118720562E-01
H54  8.595175616264E-02 -1.461801213007E-01 -3.235118720562E-01
H55 -1.913289480872E-02  3.602671661014E-01  4.445852976528E-01
H56  1.913289480872E-02 -3.602671661014E-01 -4.445852976528E-01
H57  3.242381275352E-01 -4.838230941696E-01  4.703784549771E-01
H58 -3.242381275352E-01  4.838230941696E-01 -4.703784549771E-01
H59 -4.314903675912E-01 -4.930530495598E-01  3.621891941713E-01
H60  4.314903675912E-01  4.930530495598E-01 -3.621891941713E-01
H61  1.429681762796E-02  2.175023834858E-02  1.849845811451E-01
H62 -1.429681762796E-02 -2.175023834858E-02 -1.849845811451E-01
H63 -3.062914226859E-01  3.365142812986E-01  2.341732053931E-01
H64  3.062914226859E-01 -3.365142812986E-01 -2.341732053931E-01
H65  1.162125288828E-01 -1.064708216422E-01  4.759562713429E-02
H66 -1.162125288828E-01  1.064708216422E-01 -4.759562713429E-02
H67 -2.179679185038E-01  2.338963238128E-01  9.035935899792E-02
H68  2.179679185038E-01 -2.338963238128E-01 -9.035935899792E-02
H69  4.237165153800E-01 -8.485891508098E-02  2.798732453284E-01
H70 -4.237165153800E-01  8.485891508098E-02 -2.798732453284E-01
H71 -4.971406320719E-01  3.119156288252E-03  4.239181134288E-01
H72  4.971406320719E-01 -3.119156288252E-03 -4.239181134288E-01
H73 -1.826472123190E-01 -7.630525235284E-02  4.843517129249E-01
H74  1.826472123190E-01  7.630525235284E-02 -4.843517129249E-01
H75  4.631258563097E-02 -2.493899730316E-01  4.016828724393E-01
H76 -4.631258563097E-02  2.493899730316E-01 -4.016828724393E-01
H77 -4.678957143125E-01 -2.148661482757E-01  1.431016315104E-01
H78  4.678957143125E-01  2.148661482757E-01 -1.431016315104E-01
H79  1.594715394829E-01 -3.723953952694E-01  2.644727824941E-01
H80 -1.594715394829E-01  3.723953952694E-01 -2.644727824941E-01
H81 -3.712040775515E-01 -3.614556163834E-01  7.761039453353E-03
H82  3.712040775515E-01  3.614556163834E-01 -7.761039453353E-03
H83  2.704918822743E-01 -4.978680994995E-01  1.278584144840E-01
H84 -2.704918822743E-01  4.978680994995E-01 -1.278584144840E-01


#===END

data_OPT_STEP_6

_symmetry_space_group_name_H-M 'P 1'
_cell_length_a      6.70564295
_cell_length_b      7.91096031
_cell_length_c     16.58583653
_cell_angle_alpha   99.038252
_cell_angle_beta   89.968703
_cell_angle_gamma   93.991546

loop_
_atom_site_label
_atom_site_fract_x
_atom_site_fract_y
_atom_site_fract_z
C1  5.425803443320E-02  2.359671327631E-01  3.292234323015E-01
C2 -5.425803443320E-02 -2.359671327631E-01 -3.292234323015E-01
C3  9.623600756640E-02  3.443042953614E-01  4.002149448729E-01
C4 -9.623600756640E-02 -3.443042953614E-01 -4.002149448729E-01
C5  2.881183046918E-01  4.350428055832E-01  4.136029521150E-01
C6 -2.881183046918E-01 -4.350428055832E-01 -4.136029521150E-01
C7  4.279729675557E-01  4.207798349596E-01  3.538504204215E-01
C8 -4.279729675557E-01 -4.207798349596E-01 -3.538504204215E-01
C9  3.919740344446E-01  3.055969207758E-01  2.785591697500E-01
C10 -3.919740344446E-01 -3.055969207758E-01 -2.785591697500E-01
C11  1.951780562065E-01  2.186014033434E-01  2.639975555974E-01
C12 -1.951780562065E-01 -2.186014033434E-01 -2.639975555974E-01
C13  1.580666114247E-01  1.039056422057E-01  1.925877557214E-01
C14 -1.580666114247E-01 -1.039056422057E-01 -1.925877557214E-01
C15  2.987429610578E-01  8.613460983350E-02  1.287063189602E-01
C16 -2.987429610578E-01 -8.613460983350E-02 -1.287063189602E-01
C17  4.950047761656E-01  1.750065848549E-01  1.429129598031E-01
C18 -4.950047761656E-01 -1.750065848549E-01 -1.429129598031E-01
C19 -4.672686507887E-01  2.868887936768E-01  2.174180592555E-01
C20  4.672686507887E-01 -2.868887936768E-01 -2.174180592555E-01
C21  2.612203804244E-01 -2.691735026067E-02  5.599105197203E-02
C22 -2.612203804244E-01  2.691735026067E-02 -5.599105197203E-02
C23  4.006017128750E-01 -4.228878503751E-02 -7.694425572645E-03
C24 -4.006017128750E-01  4.228878503751E-02  7.694425572645E-03
C25 -3.641433359709E-01  1.568430287453E-01  8.069450885083E-02
C26  3.641433359709E-01 -1.568430287453E-01 -8.069450885083E-02
C27 -4.388373791714E-01 -1.192276659731E-01  3.056668279628E-01
C28  4.388373791714E-01  1.192276659731E-01 -3.056668279628E-01
C29 -3.939450107414E-01 -6.703758684119E-02  3.864921371815E-01
C30  3.939450107414E-01  6.703758684119E-02 -3.864921371815E-01
C31 -2.192098627159E-01 -1.200823103556E-01  4.217012398718E-01
C32  2.192098627159E-01  1.200823103556E-01 -4.217012398718E-01
C33 -8.833427241894E-02 -2.145379223073E-01  3.743809250225E-01
C34  8.833427241894E-02  2.145379223073E-01 -3.743809250225E-01
C35 -1.206348904469E-01 -2.615507286553E-01  2.881090272042E-01
C36  1.206348904469E-01  2.615507286553E-01 -2.881090272042E-01
C37 -3.078261781036E-01 -2.224791715225E-01  2.534063077800E-01
C38  3.078261781036E-01  2.224791715225E-01 -2.534063077800E-01
C39 -3.416308347111E-01 -2.652014460752E-01  1.701001768488E-01
C40  3.416308347111E-01  2.652014460752E-01 -1.701001768488E-01
C41 -2.043469744555E-01 -3.563152167846E-01  1.182719726964E-01
C42  2.043469744555E-01  3.563152167846E-01 -1.182719726964E-01
C43 -1.536148266362E-02 -3.929000544145E-01  1.530271041847E-01
C44  1.536148266362E-02  3.929000544145E-01 -1.530271041847E-01
C45  1.687616953506E-02 -3.480919170683E-01  2.381742149244E-01
C46 -1.687616953506E-02  3.480919170683E-01 -2.381742149244E-01
C47 -2.379357535226E-01 -4.009860007370E-01  3.431671836473E-02
C48  2.379357535226E-01  4.009860007370E-01 -3.431671836473E-02
C49 -9.773471150735E-02 -4.865728757584E-01 -1.709561162880E-02
C50  9.773471150735E-02  4.865728757584E-01  1.709561162880E-02
C51  1.298145814127E-01 -4.696864531052E-01  1.016661020695E-01
C52 -1.298145814127E-01  4.696864531052E-01 -1.016661020695E-01
H53 -8.614873125533E-02  1.661929115296E-01  3.199810163473E-01
H54  8.614873125533E-02 -1.661929115296E-01 -3.199810163473E-01
H55 -1.312259849948E-02  3.566248745780E-01  4.466108388411E-01
H56  1.312259849948E-02 -3.566248745780E-01 -4.466108388411E-01
H57  3.229514971056E-01 -4.870501399592E-01  4.706631511903E-01
H58 -3.229514971056E-01  4.870501399592E-01 -4.706631511903E-01
H59 -4.283837904487E-01  4.870318410942E-01  3.640168054290E-01
H60  4.283837904487E-01 -4.870318410942E-01 -3.640168054290E-01
H61  2.253440478262E-02  2.492777447053E-02  1.858276161818E-01
H62 -2.253440478262E-02 -2.492777447053E-02 -1.858276161818E-01
H63 -3.201674247043E-01  3.435256441924E-01  2.297932519512E-01
H64  3.201674247043E-01 -3.435256441924E-01 -2.297932519512E-01
H65  1.219692795063E-01 -1.003261668514E-01  4.781274511295E-02
H66 -1.219692795063E-01  1.003261668514E-01 -4.781274511295E-02
H67 -2.191941393828E-01  2.207081986003E-01  9.162308316809E-02
H68  2.191941393828E-01 -2.207081986003E-01 -9.162308316809E-02
H69  4.305880272978E-01 -8.044424685060E-02  2.795282519219E-01
H70 -4.305880272978E-01  8.044424685060E-02 -2.795282519219E-01
H71 -4.852069738284E-01  1.771934743286E-02  4.239051846861E-01
H72  4.852069738284E-01 -1.771934743286E-02 -4.239051846861E-01
H73 -1.833924032756E-01 -7.509215373871E-02  4.843422696004E-01
H74  1.833924032756E-01  7.509215373871E-02 -4.843422696004E-01
H75  4.545796095277E-02 -2.476170593568E-01  4.005289816694E-01
H76 -4.545796095277E-02  2.476170593568E-01 -4.005289816694E-01
H77 -4.732824605821E-01 -2.280420654611E-01  1.441623320542E-01
H78  4.732824605821E-01  2.280420654611E-01 -1.441623320542E-01
H79  1.613879199674E-01 -3.657604115588E-01  2.630871360984E-01
H80 -1.613879199674E-01  3.657604115588E-01 -2.630871360984E-01
H81 -3.780201755393E-01 -3.765329026793E-01  8.972679389947E-03
H82  3.780201755393E-01  3.765329026793E-01 -8.972679389947E-03
H83  2.762959243508E-01 -4.842417164237E-01  1.263701768870E-01
H84 -2.762959243508E-01  4.842417164237E-01 -1.263701768870E-01


#===END

data_OPT_STEP_7

_symmetry_space_group_name_H-M 'P 1'
_cell_length_a      6.77432758
_cell_length_b      7.88685042
_cell_length_c     16.53724176
_cell_angle_alpha   98.580599
_cell_angle_beta   88.848536
_cell_angle_gamma   95.690777

loop_
_atom_site_label
_atom_site_fract_x
_atom_site_fract_y
_atom_site_fract_z
C1  4.677407014422E-02  2.458540694499E-01  3.266393144876E-01
C2 -4.677407014422E-02 -2.458540694499E-01 -3.266393144876E-01
C3  9.432959328589E-02  3.440920761594E-01  3.998173713930E-01
C4 -9.432959328589E-02 -3.440920761594E-01 -3.998173713930E-01
C5  2.891053533444E-01  4.316110807294E-01  4.136917907541E-01
C6 -2.891053533444E-01 -4.316110807294E-01 -4.136917907541E-01
C7  4.315407228674E-01  4.146375867983E-01  3.545603715029E-01
C8 -4.315407228674E-01 -4.146375867983E-01 -3.545603715029E-01
C9  3.913001526255E-01  3.074493457314E-01  2.775984871468E-01
C10 -3.913001526255E-01 -3.074493457314E-01 -2.775984871468E-01
C11  1.887314340335E-01  2.282902736851E-01  2.613506438263E-01
C12 -1.887314340335E-01 -2.282902736851E-01 -2.613506438263E-01
C13  1.422104208798E-01  1.309062496283E-01  1.860417312797E-01
C14 -1.422104208798E-01 -1.309062496283E-01 -1.860417312797E-01
C15  2.894381906980E-01  1.021566880508E-01  1.247218704876E-01
C16 -2.894381906980E-01 -1.021566880508E-01 -1.247218704876E-01
C17  4.964262306361E-01  1.743182793900E-01  1.427501418160E-01
C18 -4.964262306361E-01 -1.743182793900E-01 -1.427501418160E-01
C19 -4.608175766745E-01  2.781414773478E-01  2.190628119972E-01
C20  4.608175766745E-01 -2.781414773478E-01 -2.190628119972E-01
C21  2.451805564880E-01  4.132957086791E-04  4.945313825914E-02
C22 -2.451805564880E-01 -4.132957086791E-04 -4.945313825914E-02
C23  3.955450051372E-01 -3.458406722591E-02 -9.421504897938E-03
C24 -3.955450051372E-01  3.458406722591E-02  9.421504897938E-03
C25 -3.538744987581E-01  1.408981363412E-01  8.424593105861E-02
C26  3.538744987581E-01 -1.408981363412E-01 -8.424593105861E-02
C27 -4.209615327342E-01 -1.047609923040E-01  3.051453326833E-01
C28  4.209615327342E-01  1.047609923040E-01 -3.051453326833E-01
C29 -3.818859112814E-01 -5.760804197818E-02  3.861553425939E-01
C30  3.818859112814E-01  5.760804197818E-02 -3.861553425939E-01
C31 -2.091134655794E-01 -1.066339928269E-01  4.211086702152E-01
C32  2.091134655794E-01  1.066339928269E-01 -4.211086702152E-01
C33 -8.238708917509E-02 -2.037371474354E-01  3.738926813312E-01
C34  8.238708917509E-02  2.037371474354E-01 -3.738926813312E-01
C35 -1.171484844097E-01 -2.569405774684E-01  2.880550599189E-01
C36  1.171484844097E-01  2.569405774684E-01 -2.880550599189E-01
C37 -2.897586709820E-01 -2.040410572351E-01  2.526419736297E-01
C38  2.897586709820E-01  2.040410572351E-01 -2.526419736297E-01
C39 -3.188848119138E-01 -2.424226010006E-01  1.691088810446E-01
C40  3.188848119138E-01  2.424226010006E-01 -1.691088810446E-01
C41 -1.865117776811E-01 -3.365601760415E-01  1.173134876373E-01
C42  1.865117776811E-01  3.365601760415E-01 -1.173134876373E-01
C43 -2.049202134181E-02 -3.991800453480E-01  1.534842564944E-01
C44  2.049202134181E-02  3.991800453480E-01 -1.534842564944E-01
C45  8.351115675554E-03 -3.569847462841E-01  2.387867283831E-01
C46 -8.351115675554E-03  3.569847462841E-01 -2.387867283831E-01
C47 -2.098403281511E-01 -3.686444360715E-01  3.258715180705E-02
C48  2.098403281511E-01  3.686444360715E-01 -3.258715180705E-02
C49 -8.061098060269E-02 -4.659757666846E-01 -1.823131674361E-02
C50  8.061098060269E-02  4.659757666846E-01  1.823131674361E-02
C51  1.022446829539E-01  4.965657872401E-01  1.036380558365E-01
C52 -1.022446829539E-01 -4.965657872401E-01 -1.036380558365E-01
H53 -1.005234734590E-01  1.841271263924E-01  3.152747137673E-01
H54  1.005234734590E-01 -1.841271263924E-01 -3.152747137673E-01
H55 -1.515335281936E-02  3.532054265914E-01  4.476709239601E-01
H56  1.515335281936E-02 -3.532054265914E-01 -4.476709239601E-01
H57  3.244122754959E-01 -4.891819119699E-01  4.712450490255E-01
H58 -3.244122754959E-01  4.891819119699E-01 -4.712450490255E-01
H59 -4.190140566911E-01  4.754335858149E-01  3.660069395501E-01
H60  4.190140566911E-01 -4.754335858149E-01 -3.660069395501E-01
H61 -6.195541170692E-03  7.190237889031E-02  1.744119312889E-01
H62  6.195541170692E-03 -7.190237889031E-02 -1.744119312889E-01
H63 -3.078827639562E-01  3.288221292235E-01  2.328792795331E-01
H64  3.078827639562E-01 -3.288221292235E-01 -2.328792795331E-01
H65  9.219307354946E-02 -5.232937319067E-02  3.605603807686E-02
H66 -9.219307354946E-02  5.232937319067E-02 -3.605603807686E-02
H67 -1.987429546749E-01  1.912199634655E-01  9.857955769856E-02
H68  1.987429546749E-01 -1.912199634655E-01 -9.857955769856E-02
H69  4.502748652357E-01 -6.542852653700E-02  2.785604854314E-01
H70 -4.502748652357E-01  6.542852653700E-02 -2.785604854314E-01
H71 -4.746527000440E-01  2.593723046227E-02  4.238506070290E-01
H72  4.746527000440E-01 -2.593723046227E-02 -4.238506070290E-01
H73 -1.757276959274E-01 -6.307835846084E-02  4.845704984999E-01
H74  1.757276959274E-01  6.307835846084E-02 -4.845704984999E-01
H75  5.207840890743E-02 -2.347603463614E-01  3.997957632104E-01
H76 -5.207840890743E-02  2.347603463614E-01 -3.997957632104E-01
H77 -4.475133857615E-01 -2.024899121103E-01  1.427655940029E-01
H78  4.475133857615E-01  2.024899121103E-01 -1.427655940029E-01
H79  1.372246136569E-01 -3.952434978380E-01  2.650586556086E-01
H80 -1.372246136569E-01  3.952434978380E-01 -2.650586556086E-01
H81 -3.358192347882E-01 -3.254393666423E-01  5.872250923337E-03
H82  3.358192347882E-01  3.254393666423E-01 -5.872250923337E-03
H83  2.230147138766E-01  4.472141989397E-01  1.306764700830E-01
H84 -2.230147138766E-01 -4.472141989397E-01 -1.306764700830E-01


#===END

data_OPT_STEP_8

_symmetry_space_group_name_H-M 'P 1'
_cell_length_a      6.78310727
_cell_length_b      7.93201996
_cell_length_c     16.56879199
_cell_angle_alpha   98.843358
_cell_angle_beta   88.653786
_cell_angle_gamma   95.982797

loop_
_atom_site_label
_atom_site_fract_x
_atom_site_fract_y
_atom_site_fract_z
C1  4.866002802993E-02  2.391462749174E-01  3.277137461326E-01
C2 -4.866002802993E-02 -2.391462749174E-01 -3.277137461326E-01
C3  9.511503713138E-02  3.390184327362E-01  4.004685527903E-01
C4 -9.511503713138E-02 -3.390184327362E-01 -4.004685527903E-01
C5  2.887851069504E-01  4.286700871454E-01  4.138796916004E-01
C6 -2.887851069504E-01 -4.286700871454E-01 -4.138796916004E-01
C7  4.299182496042E-01  4.147158116854E-01  3.541527022840E-01
C8 -4.299182496042E-01 -4.147158116854E-01 -3.541527022840E-01
C9  3.895008542603E-01  3.083946918018E-01  2.770401602415E-01
C10 -3.895008542603E-01 -3.083946918018E-01 -2.770401602415E-01
C11  1.903768898022E-01  2.228437105453E-01  2.622451424366E-01
C12 -1.903768898022E-01 -2.228437105453E-01 -2.622451424366E-01
C13  1.446730638474E-01  1.245910328210E-01  1.872064422797E-01
C14 -1.446730638474E-01 -1.245910328210E-01 -1.872064422797E-01
C15  2.915012633615E-01  9.724648920644E-02  1.256909230539E-01
C16 -2.915012633615E-01 -9.724648920644E-02 -1.256909230539E-01
C17  4.936878433005E-01  1.780904827940E-01  1.416713694476E-01
C18 -4.936878433005E-01 -1.780904827940E-01 -1.416713694476E-01
C19 -4.637171823866E-01  2.816728199961E-01  2.180041621569E-01
C20  4.637171823866E-01 -2.816728199961E-01 -2.180041621569E-01
C21  2.493294109126E-01 -7.630480598179E-03  5.125397176282E-02
C22 -2.493294109126E-01  7.630480598179E-03 -5.125397176282E-02
C23  3.987637849823E-01 -4.028723587454E-02 -8.034037081228E-03
C24 -3.987637849823E-01  4.028723587454E-02  8.034037081228E-03
C25 -3.586679961168E-01  1.489366875133E-01  8.223482310009E-02
C26  3.586679961168E-01 -1.489366875133E-01 -8.223482310009E-02
C27 -4.225696014523E-01 -1.086828703611E-01  3.052012442988E-01
C28  4.225696014523E-01  1.086828703611E-01 -3.052012442988E-01
C29 -3.837991014630E-01 -6.069688683285E-02  3.860158389409E-01
C30  3.837991014630E-01  6.069688683285E-02 -3.860158389409E-01
C31 -2.079127029598E-01 -1.035688321079E-01  4.205816737244E-01
C32  2.079127029598E-01  1.035688321079E-01 -4.205816737244E-01
C33 -8.082113496581E-02 -1.997136859306E-01  3.733819300699E-01
C34  8.082113496581E-02  1.997136859306E-01 -3.733819300699E-01
C35 -1.159470230387E-01 -2.545676454541E-01  2.877346641082E-01
C36  1.159470230387E-01  2.545676454541E-01 -2.877346641082E-01
C37 -2.886731720267E-01 -2.035214860816E-01  2.525082470076E-01
C38  2.886731720267E-01  2.035214860816E-01 -2.525082470076E-01
C39 -3.189651135721E-01 -2.445487108067E-01  1.692488162697E-01
C40  3.189651135721E-01  2.445487108067E-01 -1.692488162697E-01
C41 -1.852274376577E-01 -3.359017649132E-01  1.172763467288E-01
C42  1.852274376577E-01  3.359017649132E-01 -1.172763467288E-01
C43 -1.961623358268E-02 -3.973379176644E-01  1.532595962903E-01
C44  1.961623358268E-02  3.973379176644E-01 -1.532595962903E-01
C45  9.604130709625E-03 -3.538202700255E-01  2.383992987646E-01
C46 -9.604130709625E-03  3.538202700255E-01 -2.383992987646E-01
C47 -2.086270810183E-01 -3.688718498768E-01  3.270496017049E-02
C48  2.086270810183E-01  3.688718498768E-01 -3.270496017049E-02
C49 -7.900976051739E-02 -4.646767101406E-01 -1.824283029743E-02
C50  7.900976051739E-02  4.646767101406E-01  1.824283029743E-02
C51  1.003724258310E-01  4.955963416779E-01  1.035415283109E-01
C52 -1.003724258310E-01 -4.955963416779E-01 -1.035415283109E-01
H53 -9.774107895697E-02  1.744548500445E-01  3.168799163552E-01
H54  9.774107895697E-02 -1.744548500445E-01 -3.168799163552E-01
H55 -1.474003913882E-02  3.479499057272E-01  4.484888213371E-01
H56  1.474003913882E-02 -3.479499057272E-01 -4.484888213371E-01
H57  3.237979938698E-01 -4.914068184622E-01  4.714786780383E-01
H58 -3.237979938698E-01  4.914068184622E-01 -4.714786780383E-01
H59 -4.219857522870E-01  4.790331022458E-01  3.648583995059E-01
H60  4.219857522870E-01 -4.790331022458E-01 -3.648583995059E-01
H61 -3.650902990324E-03  6.433525266689E-02  1.757250826192E-01
H62  3.650902990324E-03 -6.433525266689E-02 -1.757250826192E-01
H63 -3.135310887536E-01  3.380704542381E-01  2.305261336132E-01
H64  3.135310887536E-01 -3.380704542381E-01 -2.305261336132E-01
H65  9.811826169493E-02 -6.472224563894E-02  3.876701252303E-02
H66 -9.811826169493E-02  6.472224563894E-02 -3.876701252303E-02
H67 -2.070368364261E-01  2.065859812172E-01  9.486130569069E-02
H68  2.070368364261E-01 -2.065859812172E-01 -9.486130569069E-02
H69  4.467510418725E-01 -7.264837435785E-02  2.787284627968E-01
H70 -4.467510418725E-01  7.264837435785E-02 -2.787284627968E-01
H71 -4.781618248538E-01  2.114132942921E-02  4.237839694341E-01
H72  4.781618248538E-01 -2.114132942921E-02 -4.237839694341E-01
H73 -1.751948927765E-01 -6.013350969208E-02  4.841954714430E-01
H74  1.751948927765E-01  6.013350969208E-02 -4.841954714430E-01
H75  5.386077125792E-02 -2.300866957776E-01  3.992516407668E-01
H76 -5.386077125792E-02  2.300866957776E-01 -3.992516407668E-01
H77 -4.500506511695E-01 -2.086047295035E-01  1.431294478323E-01
H78  4.500506511695E-01  2.086047295035E-01 -1.431294478323E-01
H79  1.349627183822E-01 -3.966021269931E-01  2.649379130023E-01
H80 -1.349627183822E-01  3.966021269931E-01 -2.649379130023E-01
H81 -3.338364575977E-01 -3.250219487713E-01  5.957371453620E-03
H82  3.338364575977E-01  3.250219487713E-01 -5.957371453620E-03
H83  2.159686179457E-01  4.394700519123E-01  1.309949272124E-01
H84 -2.159686179457E-01 -4.394700519123E-01 -1.309949272124E-01


#===END

data_OPT_STEP_9

_symmetry_space_group_name_H-M 'P 1'
_cell_length_a      6.79374588
_cell_length_b      7.94492739
_cell_length_c     16.54490887
_cell_angle_alpha   98.596729
_cell_angle_beta   88.918128
_cell_angle_gamma   95.250209

loop_
_atom_site_label
_atom_site_fract_x
_atom_site_fract_y
_atom_site_fract_z
C1  5.006751406213E-02  2.477168782912E-01  3.267819546052E-01
C2 -5.006751406213E-02 -2.477168782912E-01 -3.267819546052E-01
C3  9.723698104845E-02  3.461273452245E-01  3.995970128842E-01
C4 -9.723698104845E-02 -3.461273452245E-01 -3.995970128842E-01
C5  2.911848046911E-01  4.318998023626E-01  4.131782363282E-01
C6 -2.911848046911E-01 -4.318998023626E-01 -4.131782363282E-01
C7  4.326151764237E-01  4.145565632973E-01  3.538769534164E-01
C8 -4.326151764237E-01 -4.145565632973E-01 -3.538769534164E-01
C9  3.917782320661E-01  3.091600746436E-01  2.768106073251E-01
C10 -3.917782320661E-01 -3.091600746436E-01 -2.768106073251E-01
C11  1.926633297697E-01  2.268204276337E-01  2.619899537288E-01
C12 -1.926633297697E-01 -2.268204276337E-01 -2.619899537288E-01
C13  1.469976616091E-01  1.287092264345E-01  1.871962855680E-01
C14 -1.469976616091E-01 -1.287092264345E-01 -1.871962855680E-01
C15  2.935497190775E-01  9.865875641243E-02  1.259135559093E-01
C16 -2.935497190775E-01 -9.865875641243E-02 -1.259135559093E-01
C17  4.953087161553E-01  1.769322157828E-01  1.417553340670E-01
C18 -4.953087161553E-01 -1.769322157828E-01 -1.417553340670E-01
C19 -4.614963534121E-01  2.794639327382E-01  2.180754095479E-01
C20  4.614963534121E-01 -2.794639327382E-01 -2.180754095479E-01
C21  2.507192159411E-01 -5.042744468844E-03  5.145876735240E-02
C22 -2.507192159411E-01  5.042744468844E-03 -5.145876735240E-02
C23  3.991288463729E-01 -3.927765068410E-02 -7.892112922453E-03
C24 -3.991288463729E-01  3.927765068410E-02  7.892112922453E-03
C25 -3.576061541890E-01  1.454238388265E-01  8.244591638561E-02
C26  3.576061541890E-01 -1.454238388265E-01 -8.244591638561E-02
C27 -4.271803420037E-01 -1.146993810381E-01  3.051671470333E-01
C28  4.271803420037E-01  1.146993810381E-01 -3.051671470333E-01
C29 -3.882766040293E-01 -6.684702685276E-02  3.859859115516E-01
C30  3.882766040293E-01  6.684702685276E-02 -3.859859115516E-01
C31 -2.117853570547E-01 -1.100611586617E-01  4.207977797046E-01
C32  2.117853570547E-01  1.100611586617E-01 -4.207977797046E-01
C33 -8.305341408644E-02 -2.045642758893E-01  3.736817802958E-01
C34  8.305341408644E-02  2.045642758893E-01 -3.736817802958E-01
C35 -1.167576160902E-01 -2.569953443279E-01  2.878415547176E-01
C36  1.167576160902E-01  2.569953443279E-01 -2.878415547176E-01
C37 -2.918691637762E-01 -2.080997332840E-01  2.525656576885E-01
C38  2.918691637762E-01  2.080997332840E-01 -2.525656576885E-01
C39 -3.242110288623E-01 -2.515653269474E-01  1.694545727334E-01
C40  3.242110288623E-01  2.515653269474E-01 -1.694545727334E-01
C41 -1.883896544624E-01 -3.403053565053E-01  1.174254042265E-01
C42  1.883896544624E-01  3.403053565053E-01 -1.174254042265E-01
C43 -1.725014654124E-02 -3.949077864289E-01  1.531217547323E-01
C44  1.725014654124E-02  3.949077864289E-01 -1.531217547323E-01
C45  1.254316799727E-02 -3.512465902275E-01  2.382890096652E-01
C46 -1.254316799727E-02  3.512465902275E-01 -2.382890096652E-01
C47 -2.151703758837E-01 -3.775359508390E-01  3.311406279531E-02
C48  2.151703758837E-01  3.775359508390E-01 -3.311406279531E-02
C49 -8.239533174877E-02 -4.689916504602E-01 -1.804152303925E-02
C50  8.239533174877E-02  4.689916504602E-01  1.804152303925E-02
C51  1.076680552688E-01 -4.949760771821E-01  1.030271356013E-01
C52 -1.076680552688E-01  4.949760771821E-01 -1.030271356013E-01
H53 -9.626030806969E-02  1.845136223658E-01  3.160209218227E-01
H54  9.626030806969E-02 -1.845136223658E-01 -3.160209218227E-01
H55 -1.203659864989E-02  3.562126510596E-01  4.477444406762E-01
H56  1.203659864989E-02 -3.562126510596E-01 -4.477444406762E-01
H57  3.261168548946E-01 -4.881369452011E-01  4.706527260347E-01
H58 -3.261168548946E-01  4.881369452011E-01 -4.706527260347E-01
H59 -4.198227252898E-01  4.779723760452E-01  3.643673606292E-01
H60  4.198227252898E-01 -4.779723760452E-01 -3.643673606292E-01
H61 -1.468890773598E-03  7.043015357258E-02  1.756650478508E-01
H62  1.468890773598E-03 -7.043015357258E-02 -1.756650478508E-01
H63 -3.118291845427E-01  3.350962177981E-01  2.303273394348E-01
H64  3.118291845427E-01 -3.350962177981E-01 -2.303273394348E-01
H65  1.000166159661E-01 -6.121968193286E-02  3.920922322318E-02
H66 -1.000166159661E-01  6.121968193286E-02 -3.920922322318E-02
H67 -2.068721326034E-01  2.027250148994E-01  9.466133347132E-02
H68  2.068721326034E-01 -2.027250148994E-01 -9.466133347132E-02
H69  4.410120714803E-01 -7.944646727826E-02  2.785857555172E-01
H70 -4.410120714803E-01  7.944646727826E-02 -2.785857555172E-01
H71 -4.831876391096E-01  1.511019440077E-02  4.235604636324E-01
H72  4.831876391096E-01 -1.511019440077E-02 -4.235604636324E-01
H73 -1.806443437345E-01 -6.905946300055E-02  4.846601126768E-01
H74  1.806443437345E-01  6.905946300055E-02 -4.846601126768E-01
H75  5.145561502118E-02 -2.361515407280E-01  3.997518724798E-01
H76 -5.145561502118E-02  2.361515407280E-01 -3.997518724798E-01
H77 -4.578893766445E-01 -2.185070975091E-01  1.434056470697E-01
H78  4.578893766445E-01  2.185070975091E-01 -1.434056470697E-01
H79  1.384016248359E-01 -3.941133322030E-01  2.649361654112E-01
H80 -1.384016248359E-01  3.941133322030E-01 -2.649361654112E-01
H81 -3.436451279763E-01 -3.376167083157E-01  6.538661494421E-03
H82  3.436451279763E-01  3.376167083157E-01 -6.538661494421E-03
H83  2.267654657880E-01  4.533446624755E-01  1.302769692707E-01
H84 -2.267654657880E-01 -4.533446624755E-01 -1.302769692707E-01


#===END

data_OPT_STEP_10

_symmetry_space_group_name_H-M 'P 1'
_cell_length_a      6.75703170
_cell_length_b      7.95209071
_cell_length_c     16.58065087
_cell_angle_alpha   98.750308
_cell_angle_beta   88.621063
_cell_angle_gamma   96.011688

loop_
_atom_site_label
_atom_site_fract_x
_atom_site_fract_y
_atom_site_fract_z
C1  4.902969601987E-02  2.436412542664E-01  3.274078654801E-01
C2 -4.902969601987E-02 -2.436412542664E-01 -3.274078654801E-01
C3  9.698378559256E-02  3.430474070413E-01  3.999325368912E-01
C4 -9.698378559256E-02 -3.430474070413E-01 -3.999325368912E-01
C5  2.923277549137E-01  4.308060001938E-01  4.130402905671E-01
C6 -2.923277549137E-01 -4.308060001938E-01 -4.130402905671E-01
C7  4.353964506571E-01  4.129358612326E-01  3.540050903033E-01
C8 -4.353964506571E-01 -4.129358612326E-01 -3.540050903033E-01
C9  3.937678757807E-01  3.070173558361E-01  2.771001155717E-01
C10 -3.937678757807E-01 -3.070173558361E-01 -2.771001155717E-01
C11  1.939058747569E-01  2.211036021549E-01  2.630595980938E-01
C12 -1.939058747569E-01 -2.211036021549E-01 -2.630595980938E-01
C13  1.491833199720E-01  1.195023220926E-01  1.891179150325E-01
C14 -1.491833199720E-01 -1.195023220926E-01 -1.891179150325E-01
C15  2.946161503096E-01  9.376737674070E-02  1.268986061182E-01
C16 -2.946161503096E-01 -9.376737674070E-02 -1.268986061182E-01
C17  4.969715039642E-01  1.757893749497E-01  1.419891080105E-01
C18 -4.969715039642E-01 -1.757893749497E-01 -1.419891080105E-01
C19 -4.615770859053E-01  2.828745047804E-01  2.171393292968E-01
C20  4.615770859053E-01 -2.828745047804E-01 -2.171393292968E-01
C21  2.506578137652E-01 -9.586445143231E-03  5.235206440622E-02
C22 -2.506578137652E-01  9.586445143231E-03 -5.235206440622E-02
C23  3.981416124620E-01 -4.003725610433E-02 -7.805087751334E-03
C24 -3.981416124620E-01  4.003725610433E-02  7.805087751334E-03
C25 -3.552461116420E-01  1.452613747888E-01  8.258886039328E-02
C26  3.552461116420E-01 -1.452613747888E-01 -8.258886039328E-02
C27 -4.205615657997E-01 -1.062736536111E-01  3.048502198925E-01
C28  4.205615657997E-01  1.062736536111E-01 -3.048502198925E-01
C29 -3.846784956605E-01 -6.297485284108E-02  3.857844949418E-01
C30  3.846784956605E-01  6.297485284108E-02 -3.857844949418E-01
C31 -2.116968316989E-01 -1.114942328215E-01  4.206364898115E-01
C32  2.116968316989E-01  1.114942328215E-01 -4.206364898115E-01
C33 -8.084417610467E-02 -2.027264181232E-01  3.732299962782E-01
C34  8.084417610467E-02  2.027264181232E-01 -3.732299962782E-01
C35 -1.141170264651E-01 -2.543938117992E-01  2.875024967272E-01
C36  1.141170264651E-01  2.543938117992E-01 -2.875024967272E-01
C37 -2.875879634032E-01 -2.027083055668E-01  2.523047037279E-01
C38  2.875879634032E-01  2.027083055668E-01 -2.523047037279E-01
C39 -3.191204170895E-01 -2.445783837577E-01  1.692525938970E-01
C40  3.191204170895E-01  2.445783837577E-01 -1.692525938970E-01
C41 -1.857642126124E-01 -3.366832724647E-01  1.172950963437E-01
C42  1.857642126124E-01  3.366832724647E-01 -1.172950963437E-01
C43 -1.581165295541E-02 -3.936696110665E-01  1.529150461494E-01
C44  1.581165295541E-02  3.936696110665E-01 -1.529150461494E-01
C45  1.507908116334E-02 -3.486509361842E-01  2.378561871569E-01
C46 -1.507908116334E-02  3.486509361842E-01 -2.378561871569E-01
C47 -2.140910607386E-01 -3.756533498587E-01  3.323516067984E-02
C48  2.140910607386E-01  3.756533498587E-01 -3.323516067984E-02
C49 -8.314269559351E-02 -4.696479021072E-01 -1.790255959676E-02
C50  8.314269559351E-02  4.696479021072E-01  1.790255959676E-02
C51  1.121794045267E-01 -4.891428966036E-01  1.024283183210E-01
C52 -1.121794045267E-01  4.891428966036E-01 -1.024283183210E-01
H53 -9.784774022457E-02  1.771249501696E-01  3.173526852769E-01
H54  9.784774022457E-02 -1.771249501696E-01 -3.173526852769E-01
H55 -1.288710612578E-02  3.535025202161E-01  4.482862209407E-01
H56  1.288710612578E-02 -3.535025202161E-01 -4.482862209407E-01
H57  3.274205891145E-01 -4.880771040036E-01  4.703744948970E-01
H58 -3.274205891145E-01  4.880771040036E-01 -4.703744948970E-01
H59 -4.170539319547E-01  4.799447602762E-01  3.637440101121E-01
H60  4.170539319547E-01 -4.799447602762E-01 -3.637440101121E-01
H61  1.241852988209E-03  5.609670141154E-02  1.786590128924E-01
H62 -1.241852988209E-03 -5.609670141154E-02 -1.786590128924E-01
H63 -3.136549329589E-01  3.456234556740E-01  2.278078214931E-01
H64  3.136549329589E-01 -3.456234556740E-01 -2.278078214931E-01
H65  1.004027006763E-01 -7.028361500172E-02  4.105442127439E-02
H66 -1.004027006763E-01  7.028361500172E-02 -4.105442127439E-02
H67 -2.046564545300E-01  2.062799923656E-01  9.400033928264E-02
H68  2.046564545300E-01 -2.062799923656E-01 -9.400033928264E-02
H69  4.494381814325E-01 -6.806408585458E-02  2.782249007329E-01
H70 -4.494381814325E-01  6.806408585458E-02 -2.782249007329E-01
H71 -4.828443648137E-01  1.506352034301E-02  4.235789720021E-01
H72  4.828443648137E-01 -1.506352034301E-02 -4.235789720021E-01
H73 -1.840903999950E-01 -7.551510435917E-02  4.848869608883E-01
H74  1.840903999950E-01  7.551510435917E-02 -4.848869608883E-01
H75  5.390150542704E-02 -2.345935721884E-01  3.990310229440E-01
H76 -5.390150542704E-02  2.345935721884E-01 -3.990310229440E-01
H77 -4.502191051338E-01 -2.072996443789E-01  1.430664391272E-01
H78  4.502191051338E-01  2.072996443789E-01 -1.430664391272E-01
H79  1.405959568575E-01 -3.921653886008E-01  2.644235752191E-01
H80 -1.405959568575E-01  3.921653886008E-01 -2.644235752191E-01
H81 -3.414407751929E-01 -3.337713431557E-01  6.703990369005E-03
H82  3.414407751929E-01  3.337713431557E-01 -6.703990369005E-03
H83  2.342821920238E-01  4.636386602520E-01  1.292465245549E-01
H84 -2.342821920238E-01 -4.636386602520E-01 -1.292465245549E-01


#===END

data_OPT_STEP_11

_symmetry_space_group_name_H-M 'P 1'
_cell_length_a      6.73978122
_cell_length_b      7.99637011
_cell_length_c     16.60233153
_cell_angle_alpha   98.936184
_cell_angle_beta   88.853810
_cell_angle_gamma   96.000242

loop_
_atom_site_label
_atom_site_fract_x
_atom_site_fract_y
_atom_site_fract_z
C1  5.152290061186E-02  2.477091636551E-01  3.269315652727E-01
C2 -5.152290061186E-02 -2.477091636551E-01 -3.269315652727E-01
C3  1.006110412952E-01  3.473316168265E-01  3.992656090889E-01
C4 -1.006110412952E-01 -3.473316168265E-01 -3.992656090889E-01
C5  2.955820757942E-01  4.361264435679E-01  4.118355827272E-01
C6 -2.955820757942E-01 -4.361264435679E-01 -4.118355827272E-01
C7  4.379755700594E-01  4.181133301117E-01  3.527588789296E-01
C8 -4.379755700594E-01 -4.181133301117E-01 -3.527588789296E-01
C9  3.954743220895E-01  3.117634370756E-01  2.760131579882E-01
C10 -3.954743220895E-01 -3.117634370756E-01 -2.760131579882E-01
C11  1.956853180782E-01  2.248734018193E-01  2.624589067017E-01
C12 -1.956853180782E-01 -2.248734018193E-01 -2.624589067017E-01
C13  1.504668149195E-01  1.222457605061E-01  1.888176818603E-01
C14 -1.504668149195E-01 -1.222457605061E-01 -1.888176818603E-01
C15  2.955391842512E-01  9.540335075404E-02  1.267069824919E-01
C16 -2.955391842512E-01 -9.540335075404E-02 -1.267069824919E-01
C17  4.969892614210E-01  1.797484521223E-01  1.409920207290E-01
C18 -4.969892614210E-01 -1.797484521223E-01 -1.409920207290E-01
C19 -4.615147420007E-01  2.886105188859E-01  2.156207457548E-01
C20  4.615147420007E-01 -2.886105188859E-01 -2.156207457548E-01
C21  2.522279083253E-01 -1.094580697893E-02  5.297163289514E-02
C22 -2.522279083253E-01  1.094580697893E-02 -5.297163289514E-02
C23  3.987786201500E-01 -4.154120362918E-02 -7.308310048763E-03
C24 -3.987786201500E-01  4.154120362918E-02  7.308310048763E-03
C25 -3.568659244790E-01  1.501628480280E-01  8.117427978400E-02
C26  3.568659244790E-01 -1.501628480280E-01 -8.117427978400E-02
C27 -4.267982826893E-01 -1.156682117257E-01  3.048416723705E-01
C28  4.267982826893E-01  1.156682117257E-01 -3.048416723705E-01
C29 -3.886240430659E-01 -6.954336942394E-02  3.856297363524E-01
C30  3.886240430659E-01  6.954336942394E-02 -3.856297363524E-01
C31 -2.154618659963E-01 -1.185612499946E-01  4.206743049046E-01
C32  2.154618659963E-01  1.185612499946E-01 -4.206743049046E-01
C33 -8.469567432418E-02 -2.098266399661E-01  3.734275713874E-01
C34  8.469567432418E-02  2.098266399661E-01 -3.734275713874E-01
C35 -1.177842869943E-01 -2.609202753372E-01  2.876626475883E-01
C36  1.177842869943E-01  2.609202753372E-01 -2.876626475883E-01
C37 -2.936894408724E-01 -2.117163668066E-01  2.523762284761E-01
C38  2.936894408724E-01  2.117163668066E-01 -2.523762284761E-01
C39 -3.256294083377E-01 -2.536004382114E-01  1.693542532608E-01
C40  3.256294083377E-01  2.536004382114E-01 -1.693542532608E-01
C41 -1.911995420475E-01 -3.441750257533E-01  1.174555821478E-01
C42  1.911995420475E-01  3.441750257533E-01 -1.174555821478E-01
C43 -1.822274582687E-02 -3.982316824356E-01  1.531709625939E-01
C44  1.822274582687E-02  3.982316824356E-01 -1.531709625939E-01
C45  1.374587844348E-02 -3.519530654266E-01  2.380355390772E-01
C46 -1.374587844348E-02  3.519530654266E-01 -2.380355390772E-01
C47 -2.202663061498E-01 -3.833726815219E-01  3.340690358652E-02
C48  2.202663061498E-01  3.833726815219E-01 -3.340690358652E-02
C49 -8.580545541229E-02 -4.724077335756E-01 -1.788504321205E-02
C50  8.580545541229E-02  4.724077335756E-01  1.788504321205E-02
C51  1.141181692844E-01 -4.881977856481E-01  1.025661296681E-01
C52 -1.141181692844E-01  4.881977856481E-01 -1.025661296681E-01
H53 -9.580200494761E-02  1.805701540577E-01  3.172166388260E-01
H54  9.580200494761E-02 -1.805701540577E-01 -3.172166388260E-01
H55 -8.883291305421E-03  3.593901535374E-01  4.477012431471E-01
H56  8.883291305421E-03 -3.593901535374E-01 -4.477012431471E-01
H57  3.313267342418E-01 -4.830785851917E-01  4.692869285378E-01
H58 -3.313267342418E-01  4.830785851917E-01 -4.692869285378E-01
H59 -4.142782060179E-01  4.854873867261E-01  3.623200610523E-01
H60  4.142782060179E-01 -4.854873867261E-01 -3.623200610523E-01
H61  2.016292140952E-03  5.839003995298E-02  1.785489577249E-01
H62 -2.016292140952E-03 -5.839003995298E-02 -1.785489577249E-01
H63 -3.122391368407E-01  3.507999669438E-01  2.263578067260E-01
H64  3.122391368407E-01 -3.507999669438E-01 -2.263578067260E-01
H65  1.027705609192E-01 -7.401859055063E-02  4.235589011221E-02
H66 -1.027705609192E-01  7.401859055063E-02 -4.235589011221E-02
H67 -2.066705157316E-01  2.125842528626E-01  9.206786551531E-02
H68  2.066705157316E-01 -2.125842528626E-01 -9.206786551531E-02
H69  4.416405502783E-01 -7.933838741297E-02  2.782589909591E-01
H70 -4.416405502783E-01  7.933838741297E-02 -2.782589909591E-01
H71 -4.888126468503E-01  6.459186259586E-03  4.232942049399E-01
H72  4.888126468503E-01 -6.459186259586E-03 -4.232942049399E-01
H73 -1.863767382785E-01 -8.051198245338E-02  4.849272771135E-01
H74  1.863767382785E-01  8.051198245338E-02 -4.849272771135E-01
H75  4.973430291975E-02 -2.429300221844E-01  3.992496843228E-01
H76 -4.973430291975E-02  2.429300221844E-01 -3.992496843228E-01
H77 -4.564434582548E-01 -2.154854641672E-01  1.429862927410E-01
H78  4.564434582548E-01  2.154854641672E-01 -1.429862927410E-01
H79  1.443152612965E-01 -3.884126960036E-01  2.643451853557E-01
H80 -1.443152612965E-01  3.884126960036E-01 -2.643451853557E-01
H81 -3.497157592076E-01 -3.441327965035E-01  6.940085442162E-03
H82  3.497157592076E-01  3.441327965035E-01 -6.940085442162E-03
H83  2.415562552870E-01  4.719445926277E-01  1.290660489039E-01
H84 -2.415562552870E-01 -4.719445926277E-01 -1.290660489039E-01


#===END

data_OPT_STEP_12

_symmetry_space_group_name_H-M 'P 1'
_cell_length_a      6.73133588
_cell_length_b      7.99414749
_cell_length_c     16.62754857
_cell_angle_alpha   98.977193
_cell_angle_beta   88.735773
_cell_angle_gamma   96.262383

loop_
_atom_site_label
_atom_site_fract_x
_atom_site_fract_y
_atom_site_fract_z
C1  5.383041040658E-02  2.415933366552E-01  3.281545676357E-01
C2 -5.383041040658E-02 -2.415933366552E-01 -3.281545676357E-01
C3  1.021513272745E-01  3.433360323431E-01  3.998895879821E-01
C4 -1.021513272745E-01 -3.433360323431E-01 -3.998895879821E-01
C5  2.969042727852E-01  4.337954191996E-01  4.120582954058E-01
C6 -2.969042727852E-01 -4.337954191996E-01 -4.120582954058E-01
C7  4.397238973479E-01  4.157294604783E-01  3.531276296646E-01
C8 -4.397238973479E-01 -4.157294604783E-01 -3.531276296646E-01
C9  3.985137526033E-01  3.065720431108E-01  2.770945828046E-01
C10 -3.985137526033E-01 -3.065720431108E-01 -2.770945828046E-01
C11  1.984921801447E-01  2.185291661665E-01  2.637962029143E-01
C12 -1.984921801447E-01 -2.185291661665E-01 -2.637962029143E-01
C13  1.532582444049E-01  1.154743486514E-01  1.902915580721E-01
C14 -1.532582444049E-01 -1.154743486514E-01 -1.902915580721E-01
C15  2.982322017983E-01  8.948493522238E-02  1.280388098504E-01
C16 -2.982322017983E-01 -8.948493522238E-02 -1.280388098504E-01
C17  4.999205914327E-01  1.749195065986E-01  1.421004184485E-01
C18 -4.999205914327E-01 -1.749195065986E-01 -1.421004184485E-01
C19 -4.571099148161E-01  2.816546498363E-01  2.171913441662E-01
C20  4.571099148161E-01 -2.816546498363E-01 -2.171913441662E-01
C21  2.538575571536E-01 -1.527982012353E-02  5.395831768838E-02
C22 -2.538575571536E-01  1.527982012353E-02 -5.395831768838E-02
C23  3.989526440604E-01 -4.258631901562E-02 -7.079144386856E-03
C24 -3.989526440604E-01  4.258631901562E-02  7.079144386856E-03
C25 -3.554888956058E-01  1.486174023221E-01  8.153405360535E-02
C26  3.554888956058E-01 -1.486174023221E-01 -8.153405360535E-02
C27 -4.260504989182E-01 -1.146192587609E-01  3.046416487800E-01
C28  4.260504989182E-01  1.146192587609E-01 -3.046416487800E-01
C29 -3.879817373973E-01 -6.899511335685E-02  3.854088437081E-01
C30  3.879817373973E-01  6.899511335685E-02 -3.854088437081E-01
C31 -2.134020690740E-01 -1.160300168786E-01  4.201479619001E-01
C32  2.134020690740E-01  1.160300168786E-01 -4.201479619001E-01
C33 -8.177638456686E-02 -2.055981455666E-01  3.727197752533E-01
C34  8.177638456686E-02  2.055981455666E-01 -3.727197752533E-01
C35 -1.133964661607E-01 -2.544612662823E-01  2.869125201985E-01
C36  1.133964661607E-01  2.544612662823E-01 -2.869125201985E-01
C37 -2.915289441238E-01 -2.082159540178E-01  2.519150087682E-01
C38  2.915289441238E-01  2.082159540178E-01 -2.519150087682E-01
C39 -3.258278839071E-01 -2.534694193910E-01  1.692547927452E-01
C40  3.258278839071E-01  2.534694193910E-01 -1.692547927452E-01
C41 -1.909640839740E-01 -3.433095203551E-01  1.172902994253E-01
C42  1.909640839740E-01  3.433095203551E-01 -1.172902994253E-01
C43 -1.195771862730E-02 -3.890398442682E-01  1.523945971082E-01
C44  1.195771862730E-02  3.890398442682E-01 -1.523945971082E-01
C45  2.031686847821E-02 -3.422073596270E-01  2.370993163941E-01
C46 -2.031686847821E-02  3.422073596270E-01 -2.370993163941E-01
C47 -2.244257742851E-01 -3.888352042961E-01  3.377826309286E-02
C48  2.244257742851E-01  3.888352042961E-01 -3.377826309286E-02
C49 -8.954313272613E-02 -4.773117760845E-01 -1.755589850293E-02
C50  8.954313272613E-02  4.773117760845E-01  1.755589850293E-02
C51  1.220550130824E-01 -4.772053147337E-01  1.017242148636E-01
C52 -1.220550130824E-01  4.772053147337E-01 -1.017242148636E-01
H53 -9.426668923131E-02  1.742082808165E-01  3.185209918076E-01
H54  9.426668923131E-02 -1.742082808165E-01 -3.185209918076E-01
H55 -7.663709827605E-03  3.565282806454E-01  4.483072716190E-01
H56  7.663709827605E-03 -3.565282806454E-01 -4.483072716190E-01
H57  3.320946517703E-01 -4.842314764606E-01  4.692636184709E-01
H58 -3.320946517703E-01  4.842314764606E-01 -4.692636184709E-01
H59 -4.122659259043E-01  4.837666285437E-01  3.625915677904E-01
H60  4.122659259043E-01 -4.837666285437E-01 -3.625915677904E-01
H61  3.900170355456E-03  5.156338532258E-02  1.799722823285E-01
H62 -3.900170355456E-03 -5.156338532258E-02 -1.799722823285E-01
H63 -3.058280254642E-01  3.424071827095E-01  2.283760709023E-01
H64  3.058280254642E-01 -3.424071827095E-01 -2.283760709023E-01
H65  1.036626793739E-01 -7.834845799947E-02  4.328498606030E-02
H66 -1.036626793739E-01  7.834845799947E-02 -4.328498606030E-02
H67 -2.043890161303E-01  2.105413062041E-01  9.256148113835E-02
H68  2.043890161303E-01 -2.105413062041E-01 -9.256148113835E-02
H69  4.414201569310E-01 -7.964214202569E-02  2.782907038637E-01
H70 -4.414201569310E-01  7.964214202569E-02 -2.782907038637E-01
H71 -4.903747018613E-01  4.235117294359E-03  4.232532056351E-01
H72  4.903747018613E-01 -4.235117294359E-03 -4.232532056351E-01
H73 -1.841100283066E-01 -7.768059312972E-02  4.844262925105E-01
H74  1.841100283066E-01  7.768059312972E-02 -4.844262925105E-01
H75  5.163866432175E-02 -2.404635680739E-01  3.984480634164E-01
H76 -5.163866432175E-02  2.404635680739E-01 -3.984480634164E-01
H77 -4.584303079358E-01 -2.180099225433E-01  1.431435904444E-01
H78  4.584303079358E-01  2.180099225433E-01 -1.431435904444E-01
H79  1.542458705579E-01 -3.738814406875E-01  2.630790309790E-01
H80 -1.542458705579E-01  3.738814406875E-01 -2.630790309790E-01
H81 -3.573120994170E-01 -3.545906318541E-01  7.717412529218E-03
H82  3.573120994170E-01  3.545906318541E-01 -7.717412529218E-03
H83  2.550207633429E-01  4.907119407451E-01  1.276823364751E-01
H84 -2.550207633429E-01 -4.907119407451E-01 -1.276823364751E-01


#===END

data_OPT_STEP_13

_symmetry_space_group_name_H-M 'P 1'
_cell_length_a      6.74121922
_cell_length_b      8.00426419
_cell_length_c     16.61609421
_cell_angle_alpha   98.906459
_cell_angle_beta   89.496412
_cell_angle_gamma   94.817764

loop_
_atom_site_label
_atom_site_fract_x
_atom_site_fract_y
_atom_site_fract_z
C1  5.861357113664E-02  2.452031129618E-01  3.279264629248E-01
C2 -5.861357113664E-02 -2.452031129618E-01 -3.279264629248E-01
C3  1.050786102757E-01  3.492126895569E-01  3.990040740154E-01
C4 -1.050786102757E-01 -3.492126895569E-01 -3.990040740154E-01
C5  2.983364658987E-01  4.367558765138E-01  4.115143144555E-01
C6 -2.983364658987E-01 -4.367558765138E-01 -4.115143144555E-01
C7  4.394148134704E-01  4.176178930413E-01  3.526443708266E-01
C8 -4.394148134704E-01 -4.176178930413E-01 -3.526443708266E-01
C9  3.993388136275E-01  3.073718019472E-01  2.769591985628E-01
C10 -3.993388136275E-01 -3.073718019472E-01 -2.769591985628E-01
C11  2.021095861330E-01  2.199482772023E-01  2.638659747978E-01
C12 -2.021095861330E-01 -2.199482772023E-01 -2.638659747978E-01
C13  1.588486173415E-01  1.145379974658E-01  1.910082468816E-01
C14 -1.588486173415E-01 -1.145379974658E-01 -1.910082468816E-01
C15  3.015064873867E-01  8.873061219759E-02  1.284957299985E-01
C16 -3.015064873867E-01 -8.873061219759E-02 -1.284957299985E-01
C17  4.998863530343E-01  1.744168311222E-01  1.421567482586E-01
C18 -4.998863530343E-01 -1.744168311222E-01 -1.421567482586E-01
C19 -4.582367521491E-01  2.818123406446E-01  2.169771864977E-01
C20  4.582367521491E-01 -2.818123406446E-01 -2.169771864977E-01
C21  2.581164054165E-01 -1.632757640878E-02  5.459112461023E-02
C22 -2.581164054165E-01  1.632757640878E-02 -5.459112461023E-02
C23  4.006077836586E-01 -4.269898981905E-02 -6.888061330287E-03
C24 -4.006077836586E-01  4.269898981905E-02  6.888061330287E-03
C25 -3.578919806203E-01  1.485073400707E-01  8.129190320388E-02
C26  3.578919806203E-01 -1.485073400707E-01 -8.129190320388E-02
C27 -4.255262077752E-01 -1.117259782206E-01  3.041312975141E-01
C28  4.255262077752E-01  1.117259782206E-01 -3.041312975141E-01
C29 -3.888603530051E-01 -7.031973076097E-02  3.853045749011E-01
C30  3.888603530051E-01  7.031973076097E-02 -3.853045749011E-01
C31 -2.152186132973E-01 -1.219548744010E-01  4.204950199833E-01
C32  2.152186132973E-01  1.219548744010E-01 -4.204950199833E-01
C33 -8.332273685823E-02 -2.120038339643E-01  3.731481143534E-01
C34  8.332273685823E-02  2.120038339643E-01 -3.731481143534E-01
C35 -1.140130712116E-01 -2.575843613922E-01  2.870386627880E-01
C36  1.140130712116E-01  2.575843613922E-01 -2.870386627880E-01
C37 -2.914064732158E-01 -2.068380347246E-01  2.515298412418E-01
C38  2.914064732158E-01  2.068380347246E-01 -2.515298412418E-01
C39 -3.259717143611E-01 -2.507099144762E-01  1.687203618910E-01
C40  3.259717143611E-01  2.507099144762E-01 -1.687203618910E-01
C41 -1.910883445525E-01 -3.417695866361E-01  1.169665392500E-01
C42  1.910883445525E-01  3.417695866361E-01 -1.169665392500E-01
C43 -1.059773629452E-02 -3.888693349659E-01  1.523935328094E-01
C44  1.059773629452E-02  3.888693349659E-01 -1.523935328094E-01
C45  1.929434426456E-02 -3.471517172604E-01  2.374854633837E-01
C46 -1.929434426456E-02  3.471517172604E-01 -2.374854633837E-01
C47 -2.247829434444E-01 -3.859441875684E-01  3.331551362745E-02
C48  2.247829434444E-01  3.859441875684E-01 -3.331551362745E-02
C49 -9.046222851802E-02 -4.766581439339E-01 -1.772537593823E-02
C50  9.046222851802E-02  4.766581439339E-01  1.772537593823E-02
C51  1.238285519817E-01 -4.782991096999E-01  1.019740745946E-01
C52 -1.238285519817E-01  4.782991096999E-01 -1.019740745946E-01
H53 -8.838272144433E-02  1.790368677467E-01  3.182629063970E-01
H54  8.838272144433E-02 -1.790368677467E-01 -3.182629063970E-01
H55 -4.301585632393E-03  3.652519973195E-01  4.471078554079E-01
H56  4.301585632393E-03 -3.652519973195E-01 -4.471078554079E-01
H57  3.330882921909E-01 -4.814181055636E-01  4.687194087912E-01
H58 -3.330882921909E-01  4.814181055636E-01 -4.687194087912E-01
H59 -4.138969368023E-01  4.845421069939E-01  3.621678514863E-01
H60  4.138969368023E-01 -4.845421069939E-01 -3.621678514863E-01
H61  1.170398945648E-02  4.958584177556E-02  1.811234734632E-01
H62 -1.170398945648E-02 -4.958584177556E-02 -1.811234734632E-01
H63 -3.098358488078E-01  3.446837922589E-01  2.274606371734E-01
H64  3.098358488078E-01 -3.446837922589E-01 -2.274606371734E-01
H65  1.096126785807E-01 -7.913823866672E-02  4.404668345334E-02
H66 -1.096126785807E-01  7.913823866672E-02 -4.404668345334E-02
H67 -2.087391832404E-01  2.104361887512E-01  9.209489477002E-02
H68  2.087391832404E-01 -2.104361887512E-01 -9.209489477002E-02
H69  4.430384132032E-01 -7.300468598378E-02  2.774749264804E-01
H70 -4.430384132032E-01  7.300468598378E-02 -2.774749264804E-01
H71 -4.914650239164E-01  3.585401824327E-03  4.230866237870E-01
H72  4.914650239164E-01 -3.585401824327E-03 -4.230866237870E-01
H73 -1.873956713490E-01 -8.701398953430E-02  4.851281653045E-01
H74  1.873956713490E-01  8.701398953430E-02 -4.851281653045E-01
H75  4.895337306416E-02 -2.507474814486E-01  3.991913950858E-01
H76 -4.895337306416E-02  2.507474814486E-01 -3.991913950858E-01
H77 -4.589489848150E-01 -2.137942314519E-01  1.423696890613E-01
H78  4.589489848150E-01  2.137942314519E-01 -1.423696890613E-01
H79  1.526971952492E-01 -3.818965967105E-01  2.638439669728E-01
H80 -1.526971952492E-01  3.818965967105E-01 -2.638439669728E-01
H81 -3.582370285306E-01 -3.503922267682E-01  7.016317525951E-03
H82  3.582370285306E-01  3.503922267682E-01 -7.016317525951E-03
H83  2.584497596796E-01  4.895105770245E-01  1.281115637097E-01
H84 -2.584497596796E-01 -4.895105770245E-01 -1.281115637097E-01


#===END

data_OPT_STEP_14

_symmetry_space_group_name_H-M 'P 1'
_cell_length_a      6.74180306
_cell_length_b      8.01000818
_cell_length_c     16.62103634
_cell_angle_alpha   98.944686
_cell_angle_beta   89.445810
_cell_angle_gamma   95.063251

loop_
_atom_site_label
_atom_site_fract_x
_atom_site_fract_y
_atom_site_fract_z
C1  5.859224305622E-02  2.446916377727E-01  3.278708354191E-01
C2 -5.859224305622E-02 -2.446916377727E-01 -3.278708354191E-01
C3  1.052641725295E-01  3.489040386044E-01  3.989136745961E-01
C4 -1.052641725295E-01 -3.489040386044E-01 -3.989136745961E-01
C5  2.989898655232E-01  4.365457372192E-01  4.114787369022E-01
C6 -2.989898655232E-01 -4.365457372192E-01 -4.114787369022E-01
C7  4.399857291092E-01  4.177965782846E-01  3.525721205327E-01
C8 -4.399857291092E-01 -4.177965782846E-01 -3.525721205327E-01
C9  3.993249646938E-01  3.079851511139E-01  2.767684851648E-01
C10 -3.993249646938E-01 -3.079851511139E-01 -2.767684851648E-01
C11  2.018569344220E-01  2.200826837928E-01  2.637172825126E-01
C12 -2.018569344220E-01 -2.200826837928E-01 -2.637172825126E-01
C13  1.585128753672E-01  1.142754210937E-01  1.909324245084E-01
C14 -1.585128753672E-01 -1.142754210937E-01 -1.909324245084E-01
C15  3.010917619460E-01  8.896154742105E-02  1.283556308089E-01
C16 -3.010917619460E-01 -8.896154742105E-02 -1.283556308089E-01
C17  4.996796537596E-01  1.752170871910E-01  1.419515194422E-01
C18 -4.996796537596E-01 -1.752170871910E-01 -1.419515194422E-01
C19 -4.585999232945E-01  2.833455134400E-01  2.166095111745E-01
C20  4.585999232945E-01 -2.833455134400E-01 -2.166095111745E-01
C21  2.578405479730E-01 -1.679225063891E-02  5.461197247980E-02
C22 -2.578405479730E-01  1.679225063891E-02 -5.461197247980E-02
C23  4.004576260197E-01 -4.290331654670E-02 -6.875807898791E-03
C24 -4.004576260197E-01  4.290331654670E-02  6.875807898791E-03
C25 -3.578678402442E-01  1.493496132044E-01  8.113643413463E-02
C26  3.578678402442E-01 -1.493496132044E-01 -8.113643413463E-02
C27 -4.266238641046E-01 -1.143397762752E-01  3.041347557574E-01
C28  4.266238641046E-01  1.143397762752E-01 -3.041347557574E-01
C29 -3.895286872847E-01 -7.219930146327E-02  3.852926955423E-01
C30  3.895286872847E-01  7.219930146327E-02 -3.852926955423E-01
C31 -2.156945191666E-01 -1.228114880711E-01  4.204541015506E-01
C32  2.156945191666E-01  1.228114880711E-01 -4.204541015506E-01
C33 -8.350920366831E-02 -2.118812784217E-01  3.730494217695E-01
C34  8.350920366831E-02  2.118812784217E-01 -3.730494217695E-01
C35 -1.143577397899E-01 -2.578990469508E-01  2.869535652351E-01
C36  1.143577397899E-01  2.578990469508E-01 -2.869535652351E-01
C37 -2.923070727657E-01 -2.086578243045E-01  2.514931865196E-01
C38  2.923070727657E-01  2.086578243045E-01 -2.514931865196E-01
C39 -3.271408306976E-01 -2.532092694228E-01  1.687416691657E-01
C40  3.271408306976E-01  2.532092694228E-01 -1.687416691657E-01
C41 -1.919678872604E-01 -3.434186467147E-01  1.169845731631E-01
C42  1.919678872604E-01  3.434186467147E-01 -1.169845731631E-01
C43 -1.082631857437E-02 -3.888552707056E-01  1.523322762808E-01
C44  1.082631857437E-02  3.888552707056E-01 -1.523322762808E-01
C45  1.918393238713E-02 -3.466909033056E-01  2.373850467011E-01
C46 -1.918393238713E-02  3.466909033056E-01 -2.373850467011E-01
C47 -2.256382220458E-01 -3.878759592474E-01  3.337763196385E-02
C48  2.256382220458E-01  3.878759592474E-01 -3.337763196385E-02
C49 -9.072424916023E-02 -4.773279034097E-01 -1.769357888984E-02
C50  9.072424916023E-02  4.773279034097E-01  1.769357888984E-02
C51  1.240565327321E-01 -4.773859479776E-01  1.018954548268E-01
C52 -1.240565327321E-01  4.773859479776E-01 -1.018954548268E-01
H53 -8.874783781335E-02  1.784824436374E-01  3.181945909272E-01
H54  8.874783781335E-02 -1.784824436374E-01 -3.181945909272E-01
H55 -4.027421023729E-03  3.648871356876E-01  4.470865072701E-01
H56  4.027421023729E-03 -3.648871356876E-01 -4.470865072701E-01
H57  3.337811746352E-01 -4.813519501597E-01  4.686564031219E-01
H58 -3.337811746352E-01  4.813519501597E-01 -4.686564031219E-01
H59 -4.129081312799E-01  4.845740485498E-01  3.621757084668E-01
H60  4.129081312799E-01 -4.845740485498E-01 -3.621757084668E-01
H61  1.129852332879E-02  4.863113107155E-02  1.811595272348E-01
H62 -1.129852332879E-02 -4.863113107155E-02 -1.811595272348E-01
H63 -3.108914486411E-01  3.482484792056E-01  2.266597000909E-01
H64  3.108914486411E-01 -3.482484792056E-01 -2.266597000909E-01
H65  1.091682932336E-01 -7.999516955743E-02  4.411172362369E-02
H66 -1.091682932336E-01  7.999516955743E-02 -4.411172362369E-02
H67 -2.087939637998E-01  2.120456375761E-01  9.179350012507E-02
H68  2.087939637998E-01 -2.120456375761E-01 -9.179350012507E-02
H69  4.416311497297E-01 -7.642832239518E-02  2.775284662482E-01
H70 -4.416311497297E-01  7.642832239518E-02 -2.775284662482E-01
H71 -4.916609219127E-01  2.215714277228E-03  4.230634661212E-01
H72  4.916609219127E-01 -2.215714277228E-03 -4.230634661212E-01
H73 -1.883884455471E-01 -8.846422383828E-02  4.851787899510E-01
H74  1.883884455471E-01  8.846422383828E-02 -4.851787899510E-01
H75  4.880341530547E-02 -2.502037839637E-01  3.990909993592E-01
H76 -4.880341530547E-02  2.502037839637E-01 -3.990909993592E-01
H77 -4.608501893409E-01 -2.177919517996E-01  1.424514399459E-01
H78  4.608501893409E-01  2.177919517996E-01 -1.424514399459E-01
H79  1.528072431095E-01 -3.809156431353E-01  2.637526052691E-01
H80 -1.528072431095E-01  3.809156431353E-01 -2.637526052691E-01
H81 -3.598780669637E-01 -3.537971992945E-01  7.137075993571E-03
H82  3.598780669637E-01  3.537971992945E-01 -7.137075993571E-03
H83  2.592377257502E-01  4.912993947260E-01  1.280101619093E-01
H84 -2.592377257502E-01 -4.912993947260E-01 -1.280101619093E-01


#===END

data_OPT_STEP_15

_symmetry_space_group_name_H-M 'P 1'
_cell_length_a      6.73850916
_cell_length_b      8.02104356
_cell_length_c     16.62985196
_cell_angle_alpha   98.952852
_cell_angle_beta   89.698422
_cell_angle_gamma   94.412972

loop_
_atom_site_label
_atom_site_fract_x
_atom_site_fract_y
_atom_site_fract_z
C1  5.978469615861E-02  2.456001165089E-01  3.279336358392E-01
C2 -5.978469615861E-02 -2.456001165089E-01 -3.279336358392E-01
C3  1.063454393059E-01  3.495541892595E-01  3.989333015604E-01
C4 -1.063454393059E-01 -3.495541892595E-01 -3.989333015604E-01
C5  2.998733493969E-01  4.358800398686E-01  4.115905072342E-01
C6 -2.998733493969E-01 -4.358800398686E-01 -4.115905072342E-01
C7  4.411955098027E-01  4.151394703799E-01  3.530277942054E-01
C8 -4.411955098027E-01 -4.151394703799E-01 -3.530277942054E-01
C9  4.001232348968E-01  3.063160945249E-01  2.771016462852E-01
C10 -4.001232348968E-01 -3.063160945249E-01 -2.771016462852E-01
C11  2.029289060262E-01  2.198010559998E-01  2.639777820821E-01
C12 -2.029289060262E-01 -2.198010559998E-01 -2.639777820821E-01
C13  1.596168599803E-01  1.143330746594E-01  1.912186012502E-01
C14 -1.596168599803E-01 -1.143330746594E-01 -1.912186012502E-01
C15  3.019946425394E-01  8.834043478405E-02  1.286858703298E-01
C16 -3.019946425394E-01 -8.834043478405E-02 -1.286858703298E-01
C17  4.996262111894E-01  1.745045167553E-01  1.420139271780E-01
C18 -4.996262111894E-01 -1.745045167553E-01 -1.420139271780E-01
C19 -4.585079280101E-01  2.818056983081E-01  2.167763666089E-01
C20  4.585079280101E-01 -2.818056983081E-01 -2.167763666089E-01
C21  2.597172432615E-01 -1.856865136710E-02  5.535839987492E-02
C22 -2.597172432615E-01  1.856865136710E-02 -5.535839987492E-02
C23  4.010841776627E-01 -4.308765305004E-02 -6.683425965788E-03
C24 -4.010841776627E-01  4.308765305004E-02  6.683425965788E-03
C25 -3.589699259250E-01  1.497636091249E-01  8.077156296973E-02
C26  3.589699259250E-01 -1.497636091249E-01 -8.077156296973E-02
C27 -4.248442169763E-01 -1.116860772414E-01  3.041690413892E-01
C28  4.248442169763E-01  1.116860772414E-01 -3.041690413892E-01
C29 -3.867898194498E-01 -6.964313065429E-02  3.853548945010E-01
C30  3.867898194498E-01  6.964313065429E-02 -3.853548945010E-01
C31 -2.126806657105E-01 -1.215372526360E-01  4.204448986496E-01
C32  2.126806657105E-01  1.215372526360E-01 -4.204448986496E-01
C33 -8.073528467122E-02 -2.112718023668E-01  3.729215585152E-01
C34  8.073528467122E-02  2.112718023668E-01 -3.729215585152E-01
C35 -1.112019735795E-01 -2.554541187463E-01  2.867078499157E-01
C36  1.112019735795E-01  2.554541187463E-01 -2.867078499157E-01
C37 -2.901992601846E-01 -2.059180169130E-01  2.513828886551E-01
C38  2.901992601846E-01  2.059180169130E-01 -2.513828886551E-01
C39 -3.246252603457E-01 -2.487665711808E-01  1.685956690460E-01
C40  3.246252603457E-01  2.487665711808E-01 -1.685956690460E-01
C41 -1.909410856910E-01 -3.416452796553E-01  1.169515554420E-01
C42  1.909410856910E-01  3.416452796553E-01 -1.169515554420E-01
C43 -1.076654181546E-02 -3.900906815055E-01  1.522704613783E-01
C44  1.076654181546E-02  3.900906815055E-01 -1.522704613783E-01
C45  2.305554563579E-02 -3.436276604244E-01  2.369740208452E-01
C46 -2.305554563579E-02  3.436276604244E-01 -2.369740208452E-01
C47 -2.254702687649E-01 -3.863765365443E-01  3.348154934788E-02
C48  2.254702687649E-01  3.863765365443E-01 -3.348154934788E-02
C49 -9.049101229269E-02 -4.761459405342E-01 -1.764507038609E-02
C50  9.049101229269E-02  4.761459405342E-01  1.764507038609E-02
C51  1.240294706308E-01 -4.793253496275E-01  1.017518036142E-01
C52 -1.240294706308E-01  4.793253496275E-01 -1.017518036142E-01
H53 -8.749423322988E-02  1.805748150203E-01  3.181900757121E-01
H54  8.749423322988E-02 -1.805748150203E-01 -3.181900757121E-01
H55 -3.062726192041E-03  3.670644282950E-01  4.469470371965E-01
H56  3.062726192041E-03 -3.670644282950E-01 -4.469470371965E-01
H57  3.340347085589E-01 -4.811105143062E-01  4.685064731075E-01
H58 -3.340347085589E-01  4.811105143062E-01 -4.685064731075E-01
H59 -4.117586533991E-01  4.807174624402E-01  3.627438065409E-01
H60  4.117586533991E-01 -4.807174624402E-01 -3.627438065409E-01
H61  1.261936584853E-02  4.916732131187E-02  1.815014185799E-01
H62 -1.261936584853E-02 -4.916732131187E-02 -1.815014185799E-01
H63 -3.115536571844E-01  3.471655682508E-01  2.265697543480E-01
H64  3.115536571844E-01 -3.471655682508E-01 -2.265697543480E-01
H65  1.127010544811E-01 -8.372589846323E-02  4.554697539092E-02
H66 -1.127010544811E-01  8.372589846323E-02 -4.554697539092E-02
H67 -2.117752749346E-01  2.146244333112E-01  9.068162433821E-02
H68  2.117752749346E-01 -2.146244333112E-01 -9.068162433821E-02
H69  4.427630645472E-01 -7.331949521040E-02  2.776864441685E-01
H70 -4.427630645472E-01  7.331949521040E-02 -2.776864441685E-01
H71 -4.883238558580E-01  5.990856951856E-03  4.232768459864E-01
H72  4.883238558580E-01 -5.990856951856E-03 -4.232768459864E-01
H73 -1.859586521522E-01 -8.890670533292E-02  4.853461735154E-01
H74  1.859586521522E-01  8.890670533292E-02 -4.853461735154E-01
H75  5.093845043662E-02 -2.517046739962E-01  3.990955360269E-01
H76 -5.093845043662E-02  2.517046739962E-01 -3.990955360269E-01
H77 -4.581927277813E-01 -2.118511200715E-01  1.422834386284E-01
H78  4.581927277813E-01  2.118511200715E-01 -1.422834386284E-01
H79  1.576999837112E-01 -3.781857995792E-01  2.632797614354E-01
H80 -1.576999837112E-01  3.781857995792E-01 -2.632797614354E-01
H81 -3.605140529783E-01 -3.519687241979E-01  7.307578344792E-03
H82  3.605140529783E-01  3.519687241979E-01 -7.307578344792E-03
H83  2.591129973225E-01  4.871177992848E-01  1.279013105791E-01
H84 -2.591129973225E-01 -4.871177992848E-01 -1.279013105791E-01


#===END

data_OPT_STEP_16

_symmetry_space_group_name_H-M 'P 1'
_cell_length_a      6.73675707
_cell_length_b      8.02450662
_cell_length_c     16.63290986
_cell_angle_alpha   98.991249
_cell_angle_beta   89.685180
_cell_angle_gamma   94.537718

loop_
_atom_site_label
_atom_site_fract_x
_atom_site_fract_y
_atom_site_fract_z
C1  5.975228944330E-02  2.453394409662E-01  3.279119245350E-01
C2 -5.975228944330E-02 -2.453394409662E-01 -3.279119245350E-01
C3  1.064319938341E-01  3.494516385707E-01  3.989037759783E-01
C4 -1.064319938341E-01 -3.494516385707E-01 -3.989037759783E-01
C5  3.000992628772E-01  4.362121068535E-01  4.115406229734E-01
C6 -3.000992628772E-01 -4.362121068535E-01 -4.115406229734E-01
C7  4.412453544491E-01  4.159853647946E-01  3.528815731096E-01
C8 -4.412453544491E-01 -4.159853647946E-01 -3.528815731096E-01
C9  4.001771977400E-01  3.067087804054E-01  2.770321756255E-01
C10 -4.001771977400E-01 -3.067087804054E-01 -2.770321756255E-01
C11  2.030037903636E-01  2.195523191824E-01  2.640032434402E-01
C12 -2.030037903636E-01 -2.195523191824E-01 -2.640032434402E-01
C13  1.595485218641E-01  1.139331192482E-01  1.912585952081E-01
C14 -1.595485218641E-01 -1.139331192482E-01 -1.912585952081E-01
C15  3.018970379815E-01  8.825369051241E-02  1.286817436271E-01
C16 -3.018970379815E-01 -8.825369051241E-02 -1.286817436271E-01
C17  4.994380950450E-01  1.752300500203E-01  1.418588457150E-01
C18 -4.994380950450E-01 -1.752300500203E-01 -1.418588457150E-01
C19 -4.585959722460E-01  2.826946624356E-01  2.166094048731E-01
C20  4.585959722460E-01 -2.826946624356E-01 -2.166094048731E-01
C21  2.594700679331E-01 -1.878802564455E-02  5.536756536973E-02
C22 -2.594700679331E-01  1.878802564455E-02 -5.536756536973E-02
C23  4.010792707345E-01 -4.340110007200E-02 -6.628404593779E-03
C24 -4.010792707345E-01  4.340110007200E-02  6.628404593779E-03
C25 -3.590571609793E-01  1.506536298219E-01  8.059857134268E-02
C26  3.590571609793E-01 -1.506536298219E-01 -8.059857134268E-02
C27 -4.250848319301E-01 -1.124227953223E-01  3.041350268364E-01
C28  4.250848319301E-01  1.124227953223E-01 -3.041350268364E-01
C29 -3.868890686170E-01 -7.009263825223E-02  3.853209162294E-01
C30  3.868890686170E-01  7.009263825223E-02 -3.853209162294E-01
C31 -2.127345047159E-01 -1.215471989372E-01  4.204146997923E-01
C32  2.127345047159E-01  1.215471989372E-01 -4.204146997923E-01
C33 -8.089452677046E-02 -2.112432562497E-01  3.728916327632E-01
C34  8.089452677046E-02  2.112432562497E-01 -3.728916327632E-01
C35 -1.117735305470E-01 -2.561476392695E-01  2.867111568795E-01
C36  1.117735305470E-01  2.561476392695E-01 -2.867111568795E-01
C37 -2.909491212237E-01 -2.072279910193E-01  2.514020863729E-01
C38  2.909491212237E-01  2.072279910193E-01 -2.514020863729E-01
C39 -3.252579342414E-01 -2.500935864025E-01  1.686178740948E-01
C40  3.252579342414E-01  2.500935864025E-01 -1.686178740948E-01
C41 -1.911762849075E-01 -3.422174693830E-01  1.169575995162E-01
C42  1.911762849075E-01  3.422174693830E-01 -1.169575995162E-01
C43 -1.131680621171E-02 -3.906914593879E-01  1.522796208605E-01
C44  1.131680621171E-02  3.906914593879E-01 -1.522796208605E-01
C45  2.243466370930E-02 -3.442076732043E-01  2.369781347767E-01
C46 -2.243466370930E-02  3.442076732043E-01 -2.369781347767E-01
C47 -2.253630764911E-01 -3.866479809295E-01  3.348153295378E-02
C48  2.253630764911E-01  3.866479809295E-01 -3.348153295378E-02
C49 -9.044099233160E-02 -4.762900512713E-01 -1.763336722091E-02
C50  9.044099233160E-02  4.762900512713E-01  1.763336722091E-02
C51  1.238757020044E-01 -4.791490482941E-01  1.017171603692E-01
C52 -1.238757020044E-01  4.791490482941E-01 -1.017171603692E-01
H53 -8.744731832922E-02  1.798021049687E-01  3.182653306912E-01
H54  8.744731832922E-02 -1.798021049687E-01 -3.182653306912E-01
H55 -2.954825103457E-03  3.668572516933E-01  4.469441135693E-01
H56  2.954825103457E-03 -3.668572516933E-01 -4.469441135693E-01
H57  3.343690629261E-01 -4.807609503304E-01  4.684868617418E-01
H58 -3.343690629261E-01  4.807609503304E-01 -4.684868617418E-01
H59 -4.119465642128E-01  4.823681391087E-01  3.624412670397E-01
H60  4.119465642128E-01 -4.823681391087E-01 -3.624412670397E-01
H61  1.246925827335E-02  4.840984922697E-02  1.815959730898E-01
H62 -1.246925827335E-02 -4.840984922697E-02 -1.815959730898E-01
H63 -3.114714106621E-01  3.482647716503E-01  2.263925321470E-01
H64  3.114714106621E-01 -3.482647716503E-01 -2.263925321470E-01
H65  1.124663669166E-01 -8.441308204880E-02  4.564990162181E-02
H66 -1.124663669166E-01  8.441308204880E-02 -4.564990162181E-02
H67 -2.119455346196E-01  2.160724864496E-01  9.039287806486E-02
H68  2.119455346196E-01 -2.160724864496E-01 -9.039287806486E-02
H69  4.425833039863E-01 -7.408542872031E-02  2.776510846783E-01
H70 -4.425833039863E-01  7.408542872031E-02 -2.776510846783E-01
H71 -4.883295558593E-01  5.549207690328E-03  4.232873173246E-01
H72  4.883295558593E-01 -5.549207690327E-03 -4.232873173246E-01
H73 -1.859780181496E-01 -8.877371567633E-02  4.853469051086E-01
H74  1.859780181496E-01  8.877371567633E-02 -4.853469051086E-01
H75  5.099310886276E-02 -2.511469513252E-01  3.990877969416E-01
H76 -5.099310886276E-02  2.511469513252E-01 -3.990877969416E-01
H77 -4.588889123104E-01 -2.134388439066E-01  1.422940035091E-01
H78  4.588889123104E-01  2.134388439066E-01 -1.422940035091E-01
H79  1.569215467623E-01 -3.790231958497E-01  2.633228598265E-01
H80 -1.569215467623E-01  3.790231958497E-01 -2.633228598265E-01
H81 -3.602033724165E-01 -3.520211782425E-01  7.272415810593E-03
H82  3.602033724165E-01  3.520211782425E-01 -7.272415810593E-03
H83  2.588143192060E-01  4.869602958310E-01  1.279038439534E-01
H84 -2.588143192060E-01 -4.869602958310E-01 -1.279038439534E-01


#===END

data_OPT_STEP_17

_symmetry_space_group_name_H-M 'P 1'
_cell_length_a      6.72834694
_cell_length_b      8.03769114
_cell_length_c     16.64132885
_cell_angle_alpha   99.102014
_cell_angle_beta   89.686294
_cell_angle_gamma   94.746913

loop_
_atom_site_label
_atom_site_fract_x
_atom_site_fract_y
_atom_site_fract_z
C1  5.977655624301E-02  2.444237048493E-01  3.279258396216E-01
C2 -5.977655624301E-02 -2.444237048493E-01 -3.279258396216E-01
C3  1.067387417003E-01  3.487616372892E-01  3.989270901435E-01
C4 -1.067387417003E-01 -3.487616372892E-01 -3.989270901435E-01
C5  3.003521358177E-01  4.370008639610E-01  4.113825387629E-01
C6 -3.003521358177E-01 -4.370008639610E-01 -4.113825387629E-01
C7  4.416040623823E-01  4.171183326515E-01  3.526887631565E-01
C8 -4.416040623823E-01 -4.171183326515E-01 -3.526887631565E-01
C9  3.999377966120E-01  3.081264759775E-01  2.767185036472E-01
C10 -3.999377966120E-01 -3.081264759775E-01 -2.767185036472E-01
C11  2.027958496937E-01  2.196613428752E-01  2.638737640583E-01
C12 -2.027958496937E-01 -2.196613428752E-01 -2.638737640583E-01
C13  1.592440131625E-01  1.134266119876E-01  1.912400921834E-01
C14 -1.592440131625E-01 -1.134266119876E-01 -1.912400921834E-01
C15  3.016812002289E-01  8.818229669217E-02  1.286305185026E-01
C16 -3.016812002289E-01 -8.818229669217E-02 -1.286305185026E-01
C17  4.993456197306E-01  1.763194971119E-01  1.416381505435E-01
C18 -4.993456197306E-01 -1.763194971119E-01 -1.416381505435E-01
C19 -4.591383114468E-01  2.852443781001E-01  2.160808519770E-01
C20  4.591383114468E-01 -2.852443781001E-01 -2.160808519770E-01
C21  2.589758802689E-01 -1.925212258854E-02  5.537034190192E-02
C22 -2.589758802689E-01  1.925212258854E-02 -5.537034190192E-02
C23  4.010194230785E-01 -4.398683549943E-02 -6.539329356254E-03
C24 -4.010194230785E-01  4.398683549943E-02  6.539329356254E-03
C25 -3.587015005118E-01  1.516710288700E-01  8.045669937105E-02
C26  3.587015005118E-01 -1.516710288700E-01 -8.045669937105E-02
C27 -4.257854496348E-01 -1.140024623548E-01  3.041049488115E-01
C28  4.257854496348E-01  1.140024623548E-01 -3.041049488115E-01
C29 -3.872699909723E-01 -7.095015296544E-02  3.852294802420E-01
C30  3.872699909723E-01  7.095015296544E-02 -3.852294802420E-01
C31 -2.129655413313E-01 -1.217081402160E-01  4.203606641985E-01
C32  2.129655413313E-01  1.217081402160E-01 -4.203606641985E-01
C33 -8.089021483999E-02 -2.110420939992E-01  3.728665423551E-01
C34  8.089021483999E-02  2.110420939992E-01 -3.728665423551E-01
C35 -1.119694301919E-01 -2.564853600444E-01  2.867097188606E-01
C36  1.119694301919E-01  2.564853600444E-01 -2.867097188606E-01
C37 -2.909851156707E-01 -2.077868558065E-01  2.513796584268E-01
C38  2.909851156707E-01  2.077868558065E-01 -2.513796584268E-01
C39 -3.256048513026E-01 -2.513296278499E-01  1.686374522634E-01
C40  3.256048513026E-01  2.513296278499E-01 -1.686374522634E-01
C41 -1.913832634570E-01 -3.430556478242E-01  1.169968685321E-01
C42  1.913832634570E-01  3.430556478242E-01 -1.169968685321E-01
C43 -1.108138643416E-02 -3.903141678930E-01  1.522494772015E-01
C44  1.108138643416E-02  3.903141678930E-01 -1.522494772015E-01
C45  2.202735199710E-02 -3.446565859580E-01  2.370005910343E-01
C46 -2.202735199710E-02  3.446565859580E-01 -2.370005910343E-01
C47 -2.257913840666E-01 -3.879814986961E-01  3.355173598179E-02
C48  2.257913840666E-01  3.879814986961E-01 -3.355173598179E-02
C49 -9.047189081761E-02 -4.766905926792E-01 -1.760809487450E-02
C50  9.047189081761E-02  4.766905926792E-01  1.760809487450E-02
C51  1.237931166010E-01 -4.787096914391E-01  1.016768778212E-01
C52 -1.237931166010E-01  4.787096914391E-01 -1.016768778212E-01
H53 -8.682688023310E-02  1.770788729524E-01  3.186517707725E-01
H54  8.682688023310E-02 -1.770788729524E-01 -3.186517707725E-01
H55 -2.726220686609E-03  3.659476016211E-01  4.469547749449E-01
H56  2.726220686609E-03 -3.659476016211E-01 -4.469547749449E-01
H57  3.348374512092E-01 -4.799190911120E-01  4.683704369306E-01
H58 -3.348374512092E-01  4.799190911120E-01 -4.683704369306E-01
H59 -4.116981424738E-01  4.844150205867E-01  3.620979780399E-01
H60  4.116981424738E-01 -4.844150205867E-01 -3.620979780399E-01
H61  1.229690953598E-02  4.669287759755E-02  1.818045796556E-01
H62 -1.229690953598E-02 -4.669287759755E-02 -1.818045796556E-01
H63 -3.117424093324E-01  3.512551300577E-01  2.258335333205E-01
H64  3.117424093324E-01 -3.512551300577E-01 -2.258335333205E-01
H65  1.121059644424E-01 -8.600235398284E-02  4.588755158728E-02
H66 -1.121059644424E-01  8.600235398284E-02 -4.588755158728E-02
H67 -2.114068755058E-01  2.175892960983E-01  9.017849399461E-02
H68  2.114068755058E-01 -2.175892960983E-01 -9.017849399461E-02
H69  4.410413137763E-01 -7.701381451408E-02  2.776917141667E-01
H70 -4.410413137763E-01  7.701381451408E-02 -2.776917141667E-01
H71 -4.889378249653E-01  4.120774798982E-03  4.233024910141E-01
H72  4.889378249653E-01 -4.120774798981E-03 -4.233024910141E-01
H73 -1.855449249353E-01 -8.777079211169E-02  4.852756082715E-01
H74  1.855449249353E-01  8.777079211169E-02 -4.852756082715E-01
H75  5.165030236048E-02 -2.495470902849E-01  3.991487474660E-01
H76 -5.165030236048E-02  2.495470902849E-01 -3.991487474660E-01
H77 -4.590849161911E-01 -2.146145915469E-01  1.422662464776E-01
H78  4.590849161911E-01  2.146145915469E-01 -1.422662464776E-01
H79  1.562425750256E-01 -3.799963260996E-01  2.634132731586E-01
H80 -1.562425750256E-01  3.799963260996E-01 -2.634132731586E-01
H81 -3.604034724147E-01 -3.530488801873E-01  7.296021522440E-03
H82  3.604034724147E-01  3.530488801873E-01 -7.296021522440E-03
H83  2.581847742513E-01  4.863334525896E-01  1.279546925750E-01
H84 -2.581847742513E-01 -4.863334525896E-01 -1.279546925750E-01


#===END

data_OPT_STEP_18

_symmetry_space_group_name_H-M 'P 1'
_cell_length_a      6.70635023
_cell_length_b      8.06545308
_cell_length_c     16.65603684
_cell_angle_alpha   99.358678
_cell_angle_beta   89.734057
_cell_angle_gamma   95.222624

loop_
_atom_site_label
_atom_site_fract_x
_atom_site_fract_y
_atom_site_fract_z
C1  5.905689749876E-02  2.429373433638E-01  3.276898409553E-01
C2 -5.905689749876E-02 -2.429373433638E-01 -3.276898409553E-01
C3  1.064338188606E-01  3.479704277660E-01  3.987087072046E-01
C4 -1.064338188606E-01 -3.479704277660E-01 -3.987087072046E-01
C5  3.003659953740E-01  4.385413957981E-01  4.110425131375E-01
C6 -3.003659953740E-01 -4.385413957981E-01 -4.110425131375E-01
C7  4.415344496368E-01  4.202753521565E-01  3.521768363492E-01
C8 -4.415344496368E-01 -4.202753521565E-01 -3.521768363492E-01
C9  4.000593032011E-01  3.095660968257E-01  2.764462120186E-01
C10 -4.000593032011E-01 -3.095660968257E-01 -2.764462120186E-01
C11  2.025687635673E-01  2.188141064507E-01  2.637248735892E-01
C12 -2.025687635673E-01 -2.188141064507E-01 -2.637248735892E-01
C13  1.586642797079E-01  1.117876536995E-01  1.911257557067E-01
C14 -1.586642797079E-01 -1.117876536995E-01 -1.911257557067E-01
C15  3.012025450770E-01  8.778491734141E-02  1.284438967691E-01
C16 -3.012025450770E-01 -8.778491734141E-02 -1.284438967691E-01
C17  4.997017081568E-01  1.774634294875E-01  1.415070837941E-01
C18 -4.997017081568E-01 -1.774634294875E-01 -1.415070837941E-01
C19 -4.582459638014E-01  2.868056004160E-01  2.160081534993E-01
C20  4.582459638014E-01 -2.868056004160E-01 -2.160081534993E-01
C21  2.581571960179E-01 -2.066348278378E-02  5.526992860429E-02
C22 -2.581571960179E-01  2.066348278378E-02 -5.526992860429E-02
C23  4.006400713257E-01 -4.482186669597E-02 -6.551260527169E-03
C24 -4.006400713257E-01  4.482186669597E-02  6.551260527169E-03
C25 -3.580117616251E-01  1.536766103900E-01  8.034632615378E-02
C26  3.580117616251E-01 -1.536766103900E-01 -8.034632615378E-02
C27 -4.271987826312E-01 -1.167586439371E-01  3.039516248764E-01
C28  4.271987826312E-01  1.167586439371E-01 -3.039516248764E-01
C29 -3.893458788630E-01 -7.422680059184E-02  3.851135293518E-01
C30  3.893458788630E-01  7.422680059184E-02 -3.851135293518E-01
C31 -2.140477287540E-01 -1.229254539380E-01  4.203432001351E-01
C32  2.140477287540E-01  1.229254539380E-01 -4.203432001351E-01
C33 -8.135192460206E-02 -2.113797914097E-01  3.729696526569E-01
C34  8.135192460206E-02  2.113797914097E-01 -3.729696526569E-01
C35 -1.130456971216E-01 -2.580960949161E-01  2.868566435957E-01
C36  1.130456971216E-01  2.580960949161E-01 -2.868566435957E-01
C37 -2.921767466936E-01 -2.101580712426E-01  2.513895163375E-01
C38  2.921767466936E-01  2.101580712426E-01 -2.513895163375E-01
C39 -3.274571780903E-01 -2.549309354189E-01  1.686615906451E-01
C40  3.274571780903E-01  2.549309354189E-01 -1.686615906451E-01
C41 -1.922216842370E-01 -3.449221815221E-01  1.170226244073E-01
C42  1.922216842370E-01  3.449221815221E-01 -1.170226244073E-01
C43 -1.180864869772E-02 -3.913848820984E-01  1.524062265014E-01
C44  1.180864869772E-02  3.913848820984E-01 -1.524062265014E-01
C45  2.111098179277E-02 -3.457900429433E-01  2.372299015081E-01
C46 -2.111098179277E-02  3.457900429433E-01 -2.372299015081E-01
C47 -2.259639921217E-01 -3.890407841312E-01  3.344644576862E-02
C48  2.259639921217E-01  3.890407841312E-01 -3.344644576862E-02
C49 -9.006903907386E-02 -4.765189051887E-01 -1.770784807293E-02
C50  9.006903907386E-02  4.765189051887E-01  1.770784807293E-02
C51  1.232202440457E-01 -4.788747750652E-01  1.018523471979E-01
C52 -1.232202440457E-01  4.788747750652E-01 -1.018523471979E-01
H53 -8.821319763345E-02  1.750010916477E-01  3.183119033261E-01
H54  8.821319763345E-02 -1.750010916477E-01 -3.183119033261E-01
H55 -3.132744589007E-03  3.643498441777E-01  4.467347731727E-01
H56  3.132744589007E-03 -3.643498441777E-01 -4.467347731727E-01
H57  3.354367239138E-01 -4.784666995278E-01  4.681807283457E-01
H58 -3.354367239138E-01  4.784666995278E-01 -4.681807283457E-01
H59 -4.117446465958E-01  4.893516153005E-01  3.614261938492E-01
H60  4.117446465958E-01 -4.893516153005E-01 -3.614261938492E-01
H61  1.137119130664E-02  4.363599496198E-02  1.817719602467E-01
H62 -1.137119130664E-02 -4.363599496198E-02 -1.817719602467E-01
H63 -3.108385592402E-01  3.547158686379E-01  2.255688188195E-01
H64  3.108385592402E-01 -3.547158686379E-01 -2.255688188195E-01
H65  1.106407296162E-01 -8.822818247896E-02  4.573745042395E-02
H66 -1.106407296162E-01  8.822818247896E-02 -4.573745042395E-02
H67 -2.104667392798E-01  2.211050725421E-01  8.994731874670E-02
H68  2.104667392798E-01 -2.211050725421E-01 -8.994731874670E-02
H69  4.398643524419E-01 -7.971425366864E-02  2.774120958808E-01
H70 -4.398643524419E-01  7.971425366864E-02 -2.774120958808E-01
H71 -4.915716072344E-01 -3.004109376901E-04  4.232625460342E-01
H72  4.915716072344E-01  3.004109376902E-04 -4.232625460342E-01
H73 -1.864593147441E-01 -8.840326452859E-02  4.853005206506E-01
H74  1.864593147441E-01  8.840326452859E-02 -4.853005206506E-01
H75  5.238876208946E-02 -2.475257736901E-01  3.993700124506E-01
H76 -5.238876208946E-02  2.475257736901E-01 -3.993700124506E-01
H77 -4.620370244089E-01 -2.201431067662E-01  1.422868397458E-01
H78  4.620370244089E-01  2.201431067662E-01 -1.422868397458E-01
H79  1.557772186681E-01 -3.803615511489E-01  2.637226443114E-01
H80 -1.557772186681E-01  3.803615511489E-01 -2.637226443114E-01
H81 -3.609293495734E-01 -3.548255629439E-01  7.119656651396E-03
H82  3.609293495734E-01  3.548255629439E-01 -7.119656651396E-03
H83  2.584280895527E-01  4.873449003556E-01  1.281736400143E-01
H84 -2.584280895527E-01 -4.873449003556E-01 -1.281736400143E-01


#===END

data_OPT_STEP_19

_symmetry_space_group_name_H-M 'P 1'
_cell_length_a      6.68143507
_cell_length_b      8.10442961
_cell_length_c     16.67198167
_cell_angle_alpha   99.585460
_cell_angle_beta   89.911246
_cell_angle_gamma   95.292832

loop_
_atom_site_label
_atom_site_fract_x
_atom_site_fract_y
_atom_site_fract_z
C1  5.936795813544E-02  2.398263825594E-01  3.278562765428E-01
C2 -5.936795813544E-02 -2.398263825594E-01 -3.278562765428E-01
C3  1.063658543238E-01  3.462553782315E-01  3.986330892744E-01
C4 -1.063658543238E-01 -3.462553782315E-01 -3.986330892744E-01
C5  3.004949840807E-01  4.378749681688E-01  4.109475864342E-01
C6 -3.004949840807E-01 -4.378749681688E-01 -4.109475864342E-01
C7  4.415740075166E-01  4.206412184366E-01  3.519924367764E-01
C8 -4.415740075166E-01 -4.206412184366E-01 -3.519924367764E-01
C9  3.997617317296E-01  3.100202054589E-01  2.761933796189E-01
C10 -3.997617317296E-01 -3.100202054589E-01 -2.761933796189E-01
C11  2.025266492757E-01  2.173516829316E-01  2.636604329793E-01
C12 -2.025266492757E-01 -2.173516829316E-01 -2.636604329793E-01
C13  1.580825308044E-01  1.107838020464E-01  1.908823614032E-01
C14 -1.580825308044E-01 -1.107838020464E-01 -1.908823614032E-01
C15  3.010461432243E-01  8.698472167559E-02  1.283444406148E-01
C16 -3.010461432243E-01 -8.698472167559E-02 -1.283444406148E-01
C17  4.989661073950E-01  1.792198198428E-01  1.410784805851E-01
C18 -4.989661073950E-01 -1.792198198428E-01 -1.410784805851E-01
C19 -4.590230939601E-01  2.891157417181E-01  2.155099931941E-01
C20  4.590230939601E-01 -2.891157417181E-01 -2.155099931941E-01
C21  2.574548603204E-01 -2.109916266540E-02  5.500440678417E-02
C22 -2.574548603204E-01  2.109916266540E-02 -5.500440678417E-02
C23  4.007328624541E-01 -4.574891705059E-02 -6.476705063664E-03
C24 -4.007328624541E-01  4.574891705059E-02  6.476705063664E-03
C25 -3.581450409616E-01  1.553749868192E-01  8.015036716612E-02
C26  3.581450409616E-01 -1.553749868192E-01 -8.015036716612E-02
C27 -4.298649699180E-01 -1.206964345395E-01  3.039450384724E-01
C28  4.298649699180E-01  1.206964345395E-01 -3.039450384724E-01
C29 -3.910661997518E-01 -7.698129903407E-02  3.850147729568E-01
C30  3.910661997518E-01  7.698129903407E-02 -3.850147729568E-01
C31 -2.138262820642E-01 -1.234218905053E-01  4.202687162042E-01
C32  2.138262820642E-01  1.234218905053E-01 -4.202687162042E-01
C33 -7.923416119477E-02 -2.096168514276E-01  3.729172259719E-01
C34  7.923416119477E-02  2.096168514276E-01 -3.729172259719E-01
C35 -1.119436470040E-01 -2.576082999241E-01  2.868744329217E-01
C36  1.119436470040E-01  2.576082999241E-01 -2.868744329217E-01
C37 -2.939615956512E-01 -2.132318890664E-01  2.514950097956E-01
C38  2.939615956512E-01  2.132318890664E-01 -2.514950097956E-01
C39 -3.287500430356E-01 -2.568637697326E-01  1.686444693999E-01
C40  3.287500430356E-01  2.568637697326E-01 -1.686444693999E-01
C41 -1.921475361472E-01 -3.450547019508E-01  1.169702406025E-01
C42  1.921475361472E-01  3.450547019508E-01 -1.169702406025E-01
C43 -1.047782513289E-02 -3.903862457803E-01  1.524363880195E-01
C44  1.047782513289E-02  3.903862457803E-01 -1.524363880195E-01
C45  2.282276599283E-02 -3.446218512155E-01  2.373054927554E-01
C46 -2.282276599283E-02  3.446218512155E-01 -2.373054927554E-01
C47 -2.264729862644E-01 -3.893910851220E-01  3.334245654974E-02
C48  2.264729862644E-01  3.893910851220E-01 -3.334245654974E-02
C49 -9.127191483185E-02 -4.779614356361E-01 -1.769914703315E-02
C50  9.127191483185E-02  4.779614356361E-01  1.769914703315E-02
C51  1.252353874019E-01 -4.767350473871E-01  1.018756840439E-01
C52 -1.252353874019E-01  4.767350473871E-01 -1.018756840439E-01
H53 -8.774879691188E-02  1.706631566943E-01  3.186245224513E-01
H54  8.774879691188E-02 -1.706631566943E-01 -3.186245224513E-01
H55 -3.428374273330E-03  3.623873392333E-01  4.465244085193E-01
H56  3.428374273330E-03 -3.623873392333E-01 -4.465244085193E-01
H57  3.354042907982E-01 -4.781972913478E-01  4.679039991993E-01
H58 -3.354042907982E-01  4.781972913478E-01 -4.679039991993E-01
H59 -4.116026809859E-01  4.904144934832E-01  3.612392921401E-01
H60  4.116026809859E-01 -4.904144934832E-01 -3.612392921401E-01
H61  1.004269350721E-02  4.293435957944E-02  1.812787601759E-01
H62 -1.004269350721E-02 -4.293435957944E-02 -1.812787601759E-01
H63 -3.119818509886E-01  3.586725719146E-01  2.248657938687E-01
H64  3.119818509886E-01 -3.586725719146E-01 -2.248657938687E-01
H65  1.088076730430E-01 -8.767111028622E-02  4.504175300082E-02
H66 -1.088076730430E-01  8.767111028622E-02 -4.504175300082E-02
H67 -2.099387093622E-01  2.226831602324E-01  8.996976262379E-02
H68  2.099387093622E-01 -2.226831602324E-01 -8.996976262379E-02
H69  4.358607045281E-01 -8.521148400097E-02  2.774173412777E-01
H70 -4.358607045281E-01  8.521148400097E-02 -2.774173412777E-01
H71 -4.943050049518E-01 -4.689304720660E-03  4.233044594027E-01
H72  4.943050049518E-01  4.689304720660E-03 -4.233044594027E-01
H73 -1.866481047487E-01 -8.959385009562E-02  4.853114711830E-01
H74  1.866481047487E-01  8.959385009562E-02 -4.853114711830E-01
H75  5.548069250990E-02 -2.443248477864E-01  3.995113473441E-01
H76 -5.548069250990E-02  2.443248477864E-01 -3.995113473441E-01
H77 -4.640943413393E-01 -2.227887646515E-01  1.422256592953E-01
H78  4.640943413393E-01  2.227887646515E-01 -1.422256592953E-01
H79  1.579851221364E-01 -3.789639202113E-01  2.638844255620E-01
H80 -1.579851221364E-01  3.789639202113E-01 -2.638844255620E-01
H81 -3.619966915281E-01 -3.554776837963E-01  6.969902838809E-03
H82  3.619966915281E-01  3.554776837963E-01 -6.969902838809E-03
H83  2.613280223166E-01  4.901418697239E-01  1.282420512595E-01
H84 -2.613280223166E-01 -4.901418697239E-01 -1.282420512595E-01


#===END

data_OPT_STEP_20

_symmetry_space_group_name_H-M 'P 1'
_cell_length_a      6.67573367
_cell_length_b      8.11241133
_cell_length_c     16.67643667
_cell_angle_alpha   99.640851
_cell_angle_beta   89.944379
_cell_angle_gamma   95.354869

loop_
_atom_site_label
_atom_site_fract_x
_atom_site_fract_y
_atom_site_fract_z
C1  5.891430203371E-02  2.404134650917E-01  3.276409629756E-01
C2 -5.891430203371E-02 -2.404134650917E-01 -3.276409629756E-01
C3  1.061854931287E-01  3.466583323152E-01  3.984790986459E-01
C4 -1.061854931287E-01 -3.466583323152E-01 -3.984790986459E-01
C5  3.006935376629E-01  4.380348680415E-01  4.108957889670E-01
C6 -3.006935376629E-01 -4.380348680415E-01 -4.108957889670E-01
C7  4.418444698341E-01  4.207459303102E-01  3.519915666360E-01
C8 -4.418444698341E-01 -4.207459303102E-01 -3.519915666360E-01
C9  4.001582189927E-01  3.095706621775E-01  2.763029190249E-01
C10 -4.001582189927E-01 -3.095706621775E-01 -2.763029190249E-01
C11  2.025985545066E-01  2.170055675365E-01  2.636857756594E-01
C12 -2.025985545066E-01 -2.170055675365E-01 -2.636857756594E-01
C13  1.582833607163E-01  1.099127967744E-01  1.909968686213E-01
C14 -1.582833607163E-01 -1.099127967744E-01 -1.909968686213E-01
C15  3.010891300942E-01  8.658750038714E-02  1.283815449703E-01
C16 -3.010891300942E-01 -8.658750038714E-02 -1.283815449703E-01
C17  4.992339867044E-01  1.788560033164E-01  1.411818801475E-01
C18 -4.992339867044E-01 -1.788560033164E-01 -1.411818801475E-01
C19 -4.586802022323E-01  2.889021518231E-01  2.156026321168E-01
C20  4.586802022323E-01 -2.889021518231E-01 -2.156026321168E-01
C21  2.575376696592E-01 -2.171340370793E-02  5.506633341308E-02
C22 -2.575376696592E-01  2.171340370793E-02 -5.506633341308E-02
C23  4.006782122085E-01 -4.586178889538E-02 -6.489245859065E-03
C24 -4.006782122085E-01  4.586178889538E-02  6.489245859065E-03
C25 -3.581203896386E-01  1.556403267299E-01  8.014618977409E-02
C26  3.581203896386E-01 -1.556403267299E-01 -8.014618977409E-02
C27 -4.296600241179E-01 -1.207609141551E-01  3.039289198854E-01
C28  4.296600241179E-01  1.207609141551E-01 -3.039289198854E-01
C29 -3.906674404564E-01 -7.708701010995E-02  3.850461891207E-01
C30  3.906674404564E-01  7.708701010995E-02 -3.850461891207E-01
C31 -2.134625981543E-01 -1.237012993504E-01  4.202952710731E-01
C32  2.134625981543E-01  1.237012993504E-01 -4.202952710731E-01
C33 -7.922264858239E-02 -2.101627148687E-01  3.729323556404E-01
C34  7.922264858239E-02  2.101627148687E-01 -3.729323556404E-01
C35 -1.120820688710E-01 -2.580766841892E-01  2.868708325629E-01
C36  1.120820688710E-01  2.580766841892E-01 -2.868708325629E-01
C37 -2.936609164180E-01 -2.129924949853E-01  2.514277770394E-01
C38  2.936609164180E-01  2.129924949853E-01 -2.514277770394E-01
C39 -3.286951052440E-01 -2.568096039245E-01  1.685792776179E-01
C40  3.286951052440E-01  2.568096039245E-01 -1.685792776179E-01
C41 -1.922270853097E-01 -3.451278410137E-01  1.169236877747E-01
C42  1.922270853097E-01  3.451278410137E-01 -1.169236877747E-01
C43 -1.053934447116E-02 -3.905678068648E-01  1.524266218425E-01
C44  1.053934447116E-02  3.905678068648E-01 -1.524266218425E-01
C45  2.263367378385E-02 -3.450629430417E-01  2.373175064767E-01
C46 -2.263367378385E-02  3.450629430417E-01 -2.373175064767E-01
C47 -2.267359077259E-01 -3.896232133229E-01  3.330767526226E-02
C48  2.267359077259E-01  3.896232133229E-01 -3.330767526226E-02
C49 -9.118540065368E-02 -4.777126802967E-01 -1.772913310605E-02
C50  9.118540065368E-02  4.777126802967E-01  1.772913310605E-02
C51  1.250244169133E-01 -4.773102037257E-01  1.019302673259E-01
C52 -1.250244169133E-01  4.773102037257E-01 -1.019302673259E-01
H53 -8.845328943224E-02  1.713524361025E-01  3.183401301491E-01
H54  8.845328943224E-02 -1.713524361025E-01 -3.183401301491E-01
H55 -3.551664048330E-03  3.626190147659E-01  4.463898126333E-01
H56  3.551664048330E-03 -3.626190147659E-01 -4.463898126333E-01
H57  3.356465891641E-01 -4.778000374534E-01  4.678065656457E-01
H58 -3.356465891641E-01  4.778000374534E-01 -4.678065656457E-01
H59 -4.112940800562E-01  4.908251598370E-01  3.612173944802E-01
H60  4.112940800562E-01 -4.908251598370E-01 -3.612173944802E-01
H61  1.024908907365E-02  4.170008371246E-02  1.814233303926E-01
H62 -1.024908907365E-02 -4.170008371246E-02 -1.814233303926E-01
H63 -3.111852638944E-01  3.580380502682E-01  2.251176418103E-01
H64  3.111852638944E-01 -3.580380502682E-01 -2.251176418103E-01
H65  1.091660415241E-01 -8.918539264955E-02  4.525875596178E-02
H66 -1.091660415241E-01  8.918539264955E-02 -4.525875596178E-02
H67 -2.099534173515E-01  2.234225123868E-01  8.991688012007E-02
H68  2.099534173515E-01 -2.234225123868E-01 -8.991688012007E-02
H69  4.356103564789E-01 -8.586675040302E-02  2.774342557463E-01
H70 -4.356103564789E-01  8.586675040302E-02 -2.774342557463E-01
H71 -4.936448726371E-01 -4.545915362212E-03  4.233474721510E-01
H72  4.936448726371E-01  4.545915362212E-03 -4.233474721510E-01
H73 -1.859614286910E-01 -8.963201809608E-02  4.853170923956E-01
H74  1.859614286910E-01  8.963201809608E-02 -4.853170923956E-01
H75  5.563867021295E-02 -2.448240353808E-01  3.994888852254E-01
H76 -5.563867021295E-02  2.448240353808E-01 -3.994888852254E-01
H77 -4.642564888135E-01 -2.229903524828E-01  1.421646419499E-01
H78  4.642564888135E-01  2.229903524828E-01 -1.421646419499E-01
H79  1.577372993881E-01 -3.795063617528E-01  2.639246173182E-01
H80 -1.577372993881E-01  3.795063617528E-01 -2.639246173182E-01
H81 -3.624146870626E-01 -3.558940250772E-01  6.923023306075E-03
H82  3.624146870626E-01  3.558940250772E-01 -6.923023306075E-03
H83  2.605778927789E-01  4.887409132026E-01  1.283759646047E-01
H84 -2.605778927789E-01 -4.887409132026E-01 -1.283759646047E-01


#===END

data_OPT_STEP_21

_symmetry_space_group_name_H-M 'P 1'
_cell_length_a      6.66467400
_cell_length_b      8.13009024
_cell_length_c     16.69274896
_cell_angle_alpha   99.795029
_cell_angle_beta   90.026888
_cell_angle_gamma   95.395754

loop_
_atom_site_label
_atom_site_fract_x
_atom_site_fract_y
_atom_site_fract_z
C1  5.917710702759E-02  2.401210719810E-01  3.275861828392E-01
C2 -5.917710702759E-02 -2.401210719810E-01 -3.275861828392E-01
C3  1.065238106313E-01  3.467672556765E-01  3.983637079469E-01
C4 -1.065238106313E-01 -3.467672556765E-01 -3.983637079469E-01
C5  3.010338351215E-01  4.387550323880E-01  4.107352650555E-01
C6 -3.010338351215E-01 -4.387550323880E-01 -4.107352650555E-01
C7  4.424888341518E-01  4.209009843724E-01  3.520275482170E-01
C8 -4.424888341518E-01 -4.209009843724E-01 -3.520275482170E-01
C9  4.002896020722E-01  3.101071563457E-01  2.762083311998E-01
C10 -4.002896020722E-01 -3.101071563457E-01 -2.762083311998E-01
C11  2.023978136360E-01  2.175005288794E-01  2.634924802673E-01
C12 -2.023978136360E-01 -2.175005288794E-01 -2.634924802673E-01
C13  1.581325469978E-01  1.098379625928E-01  1.908862651376E-01
C14 -1.581325469978E-01 -1.098379625928E-01 -1.908862651376E-01
C15  3.011753700289E-01  8.619876093910E-02  1.284063226370E-01
C16 -3.011753700289E-01 -8.619876093910E-02 -1.284063226370E-01
C17  4.997271465193E-01  1.783126492945E-01  1.413530035178E-01
C18 -4.997271465193E-01 -1.783126492945E-01 -1.413530035178E-01
C19 -4.581895864936E-01  2.888553514903E-01  2.157005446716E-01
C20  4.581895864936E-01 -2.888553514903E-01 -2.157005446716E-01
C21  2.579067475648E-01 -2.290745707520E-02  5.524274327381E-02
C22 -2.579067475648E-01  2.290745707520E-02 -5.524274327381E-02
C23  4.006151108340E-01 -4.602724491052E-02 -6.505822383948E-03
C24 -4.006151108340E-01  4.602724491052E-02  6.505822383948E-03
C25 -3.577429956951E-01  1.554471799599E-01  8.029282474796E-02
C26  3.577429956951E-01 -1.554471799599E-01 -8.029282474796E-02
C27 -4.281043083339E-01 -1.192046380721E-01  3.038671354369E-01
C28  4.281043083339E-01  1.192046380721E-01 -3.038671354369E-01
C29 -3.894000042299E-01 -7.663211350225E-02  3.851062400695E-01
C30  3.894000042299E-01  7.663211350225E-02 -3.851062400695E-01
C31 -2.122994004346E-01 -1.238221801045E-01  4.203013209479E-01
C32  2.122994004346E-01  1.238221801045E-01 -4.203013209479E-01
C33 -7.922793159758E-02 -2.116225799314E-01  3.729344879208E-01
C34  7.922793159758E-02  2.116225799314E-01 -3.729344879208E-01
C35 -1.121749617520E-01 -2.589899545774E-01  2.868396192158E-01
C36  1.121749617520E-01  2.589899545774E-01 -2.868396192158E-01
C37 -2.929583008340E-01 -2.124202277780E-01  2.513395445747E-01
C38  2.929583008340E-01  2.124202277780E-01 -2.513395445747E-01
C39 -3.287340774864E-01 -2.569066075848E-01  1.685447952522E-01
C40  3.287340774864E-01  2.569066075848E-01 -1.685447952522E-01
C41 -1.926951549171E-01 -3.457746014532E-01  1.169148404827E-01
C42  1.926951549171E-01  3.457746014532E-01 -1.169148404827E-01
C43 -1.108767501179E-02 -3.916968313274E-01  1.524225218171E-01
C44  1.108767501179E-02  3.916968313274E-01 -1.524225218171E-01
C45  2.208732241348E-02 -3.465155528904E-01  2.373106842389E-01
C46 -2.208732241348E-02  3.465155528904E-01 -2.373106842389E-01
C47 -2.268209669835E-01 -3.894360642969E-01  3.327940828578E-02
C48  2.268209669835E-01  3.894360642969E-01 -3.327940828578E-02
C49 -9.082402041103E-02 -4.769350101625E-01 -1.776364135731E-02
C50  9.082402041103E-02  4.769350101625E-01  1.776364135731E-02
C51  1.248703696741E-01 -4.781607629249E-01  1.019368978980E-01
C52 -1.248703696741E-01  4.781607629249E-01 -1.019368978980E-01
H53 -8.797024890801E-02  1.701139673490E-01  3.184236238096E-01
H54  8.797024890801E-02 -1.701139673490E-01 -3.184236238096E-01
H55 -3.254870625056E-03  3.627901625538E-01  4.462308077873E-01
H56  3.254870625056E-03 -3.627901625538E-01 -4.462308077873E-01
H57  3.360873975900E-01 -4.768079544321E-01  4.676059143027E-01
H58 -3.360873975900E-01  4.768079544321E-01 -4.676059143027E-01
H59 -4.102516719205E-01  4.907859421725E-01  3.613880925927E-01
H60  4.102516719205E-01 -4.907859421725E-01 -3.613880925927E-01
H61  1.012668985605E-02  4.109472695990E-02  1.813436497292E-01
H62 -1.012668985605E-02 -4.109472695990E-02 -1.813436497292E-01
H63 -3.102300634425E-01  3.576779547367E-01  2.253789373624E-01
H64  3.102300634425E-01 -3.576779547367E-01 -2.253789373624E-01
H65  1.100763943134E-01 -9.192445065591E-02  4.571181739441E-02
H66 -1.100763943134E-01  9.192445065591E-02 -4.571181739441E-02
H67 -2.096696954873E-01  2.239579435040E-01  8.999097172588E-02
H68  2.096696954873E-01 -2.239579435040E-01 -8.999097172588E-02
H69  4.378893817130E-01 -8.297774820107E-02  2.773081882407E-01
H70 -4.378893817130E-01  8.297774820107E-02 -2.773081882407E-01
H71 -4.920653252283E-01 -3.753968072710E-03  4.234335823339E-01
H72  4.920653252283E-01  3.753968072710E-03 -4.234335823339E-01
H73 -1.838679850535E-01 -8.890382023678E-02  4.852404156588E-01
H74  1.838679850535E-01  8.890382023678E-02 -4.852404156588E-01
H75  5.565598727759E-02 -2.467622909253E-01  3.993911843415E-01
H76 -5.565598727759E-02  2.467622909253E-01 -3.993911843415E-01
H77 -4.641089171428E-01 -2.225500564501E-01  1.421064406046E-01
H78  4.641089171428E-01  2.225500564501E-01 -1.421064406046E-01
H79  1.571554166475E-01 -3.812007750950E-01  2.639254486601E-01
H80 -1.571554166475E-01  3.812007750950E-01 -2.639254486601E-01
H81 -3.622109839886E-01 -3.550686324320E-01  6.845625066286E-03
H82  3.622109839886E-01  3.550686324320E-01 -6.845625066286E-03
H83  2.605295815732E-01  4.878381866643E-01  1.283887831761E-01
H84 -2.605295815732E-01 -4.878381866643E-01 -1.283887831761E-01


#===END

data_OPT_STEP_22

_symmetry_space_group_name_H-M 'P 1'
_cell_length_a      6.65250383
_cell_length_b      8.14659495
_cell_length_c     16.70517195
_cell_angle_alpha   99.952853
_cell_angle_beta   90.113558
_cell_angle_gamma   95.508380

loop_
_atom_site_label
_atom_site_fract_x
_atom_site_fract_y
_atom_site_fract_z
C1  5.914148239717E-02  2.398975569989E-01  3.274388554808E-01
C2 -5.914148239717E-02 -2.398975569989E-01 -3.274388554808E-01
C3  1.066083357658E-01  3.469453228812E-01  3.982001003167E-01
C4 -1.066083357658E-01 -3.469453228812E-01 -3.982001003167E-01
C5  3.011455840665E-01  4.398923975759E-01  4.105405460536E-01
C6 -3.011455840665E-01 -4.398923975759E-01 -4.105405460536E-01
C7  4.427498108159E-01  4.220957401765E-01  3.519180981400E-01
C8 -4.427498108159E-01 -4.220957401765E-01 -3.519180981400E-01
C9  4.007541125527E-01  3.102743601479E-01  2.762515780939E-01
C10 -4.007541125527E-01 -3.102743601479E-01 -2.762515780939E-01
C11  2.026578299768E-01  2.170056045116E-01  2.635054510919E-01
C12 -2.026578299768E-01 -2.170056045116E-01 -2.635054510919E-01
C13  1.584656635974E-01  1.085762461765E-01  1.910028465657E-01
C14 -1.584656635974E-01 -1.085762461765E-01 -1.910028465657E-01
C15  3.013249224438E-01  8.560825446502E-02  1.284522166903E-01
C16 -3.013249224438E-01 -8.560825446502E-02 -1.284522166903E-01
C17 -4.998838584020E-01  1.783091064701E-01  1.414412941643E-01
C18  4.998838584020E-01 -1.783091064701E-01 -1.414412941643E-01
C19 -4.573615790393E-01  2.886882418313E-01  2.159138556191E-01
C20  4.573615790393E-01 -2.886882418313E-01 -2.159138556191E-01
C21  2.577417796683E-01 -2.348280476279E-02  5.520145495057E-02
C22 -2.577417796683E-01  2.348280476279E-02 -5.520145495057E-02
C23  4.005056143523E-01 -4.634065891081E-02 -6.520140059468E-03
C24 -4.005056143523E-01  4.634065891081E-02  6.520140059468E-03
C25 -3.574115521896E-01  1.558952017380E-01  8.036003991377E-02
C26  3.574115521896E-01 -1.558952017380E-01 -8.036003991377E-02
C27 -4.275488418851E-01 -1.193757045869E-01  3.038994836092E-01
C28  4.275488418851E-01  1.193757045869E-01 -3.038994836092E-01
C29 -3.886107586253E-01 -7.692978152723E-02  3.851774003423E-01
C30  3.886107586253E-01  7.692978152723E-02 -3.851774003423E-01
C31 -2.121728812863E-01 -1.253340169860E-01  4.204457994286E-01
C32  2.121728812863E-01  1.253340169860E-01 -4.204457994286E-01
C33 -7.898026430949E-02 -2.127271841147E-01  3.730218454890E-01
C34  7.898026430949E-02  2.127271841147E-01 -3.730218454890E-01
C35 -1.117135181626E-01 -2.592951945805E-01  2.868579380650E-01
C36  1.117135181626E-01  2.592951945805E-01 -2.868579380650E-01
C37 -2.922611811435E-01 -2.121504392296E-01  2.513128089284E-01
C38  2.922611811435E-01  2.121504392296E-01 -2.513128089284E-01
C39 -3.278805554436E-01 -2.560597440768E-01  1.684637115470E-01
C40  3.278805554436E-01  2.560597440768E-01 -1.684637115470E-01
C41 -1.925217789528E-01 -3.457876147694E-01  1.168948013679E-01
C42  1.925217789528E-01  3.457876147694E-01 -1.168948013679E-01
C43 -1.116333471236E-02 -3.922745361176E-01  1.524522726169E-01
C44  1.116333471236E-02  3.922745361176E-01 -1.524522726169E-01
C45  2.231673203337E-02 -3.470121553324E-01  2.373424186109E-01
C46 -2.231673203337E-02  3.470121553324E-01 -2.373424186109E-01
C47 -2.266806629646E-01 -3.892246611054E-01  3.323667089701E-02
C48  2.266806629646E-01  3.892246611054E-01 -3.323667089701E-02
C49 -9.068933463602E-02 -4.766321541031E-01 -1.779004581385E-02
C50  9.068933463602E-02  4.766321541031E-01  1.779004581385E-02
C51  1.243518470897E-01 -4.793488441640E-01  1.020255334832E-01
C52 -1.243518470897E-01  4.793488441640E-01 -1.020255334832E-01
H53 -8.835344692944E-02  1.697779894035E-01  3.181636987238E-01
H54  8.835344692944E-02 -1.697779894035E-01 -3.181636987238E-01
H55 -3.247436602827E-03  3.628674086378E-01  4.460266667378E-01
H56  3.247436602827E-03 -3.628674086378E-01 -4.460266667378E-01
H57  3.364536721736E-01 -4.756903183494E-01  4.674782976404E-01
H58 -3.364536721736E-01  4.756903183494E-01 -4.674782976404E-01
H59 -4.099733574484E-01  4.927207510428E-01  3.612452077127E-01
H60  4.099733574484E-01 -4.927207510428E-01 -3.612452077127E-01
H61  1.064127752629E-02  3.873423136769E-02  1.815846191870E-01
H62 -1.064127752629E-02 -3.873423136769E-02 -1.815846191870E-01
H63 -3.093799490379E-01  3.581913269618E-01  2.255621937366E-01
H64  3.093799490379E-01 -3.581913269618E-01 -2.255621937366E-01
H65  1.096064631324E-01 -9.270397961895E-02  4.557607635325E-02
H66 -1.096064631324E-01  9.270397961895E-02 -4.557607635325E-02
H67 -2.093339710340E-01  2.251781055750E-01  9.001333097035E-02
H68  2.093339710340E-01 -2.251781055750E-01 -9.001333097035E-02
H69  4.386583112544E-01 -8.264114020369E-02  2.772942906968E-01
H70 -4.386583112544E-01  8.264114020369E-02 -2.772942906968E-01
H71 -4.908959473223E-01 -3.615939311958E-03  4.234927131693E-01
H72  4.908959473223E-01  3.615939311958E-03 -4.234927131693E-01
H73 -1.839245720169E-01 -9.101247830571E-02  4.854291873906E-01
H74  1.839245720169E-01  9.101247830571E-02 -4.854291873906E-01
H75  5.606987749482E-02 -2.479715940184E-01  3.994297228333E-01
H76 -5.606987749482E-02  2.479715940184E-01 -3.994297228333E-01
H77 -4.626182100925E-01 -2.205616115341E-01  1.419271107617E-01
H78  4.626182100925E-01  2.205616115341E-01 -1.419271107617E-01
H79  1.573304263323E-01 -3.819393877134E-01  2.639879032431E-01
H80 -1.573304263323E-01  3.819393877134E-01 -2.639879032431E-01
H81 -3.618101826369E-01 -3.543096151500E-01  6.736237454357E-03
H82  3.618101826369E-01  3.543096151500E-01 -6.736237454357E-03
H83  2.598919609767E-01  4.863230460909E-01  1.285250932470E-01
H84 -2.598919609767E-01 -4.863230460909E-01 -1.285250932470E-01


#===END

data_OPT_STEP_23

_symmetry_space_group_name_H-M 'P 1'
_cell_length_a      6.63875064
_cell_length_b      8.16425709
_cell_length_c     16.71573672
_cell_angle_alpha  100.082684
_cell_angle_beta   90.281635
_cell_angle_gamma   95.391671

loop_
_atom_site_label
_atom_site_fract_x
_atom_site_fract_y
_atom_site_fract_z
C1  5.935299852461E-02  2.398199191463E-01  3.273095285510E-01
C2 -5.935299852461E-02 -2.398199191463E-01 -3.273095285510E-01
C3  1.069210507321E-01  3.468574681343E-01  3.981081259842E-01
C4 -1.069210507321E-01 -3.468574681343E-01 -3.981081259842E-01
C5  3.014050136156E-01  4.401206803275E-01  4.104942846681E-01
C6 -3.014050136156E-01 -4.401206803275E-01 -4.104942846681E-01
C7  4.429900292851E-01  4.224790030296E-01  3.519008665437E-01
C8 -4.429900292851E-01 -4.224790030296E-01 -3.519008665437E-01
C9  4.012633685671E-01  3.099756871391E-01  2.763480174965E-01
C10 -4.012633685671E-01 -3.099756871391E-01 -2.763480174965E-01
C11  2.032100592930E-01  2.163617023261E-01  2.635726100858E-01
C12 -2.032100592930E-01 -2.163617023261E-01 -2.635726100858E-01
C13  1.586780664015E-01  1.083519397886E-01  1.909450937313E-01
C14 -1.586780664015E-01 -1.083519397886E-01 -1.909450937313E-01
C15  3.013462830770E-01  8.572055295841E-02  1.283676252317E-01
C16 -3.013462830770E-01 -8.572055295841E-02 -1.283676252317E-01
C17 -4.998813271862E-01  1.787519311277E-01  1.413812961785E-01
C18  4.998813271862E-01 -1.787519311277E-01 -1.413812961785E-01
C19 -4.574289008919E-01  2.894690684587E-01  2.158180637957E-01
C20  4.574289008919E-01 -2.894690684587E-01 -2.158180637957E-01
C21  2.577443197658E-01 -2.361048036900E-02  5.513373583399E-02
C22 -2.577443197658E-01  2.361048036900E-02 -5.513373583399E-02
C23  4.004609024885E-01 -4.642974281258E-02 -6.547426677761E-03
C24 -4.004609024885E-01  4.642974281258E-02  6.547426677761E-03
C25 -3.575404611775E-01  1.565926770014E-01  8.029063786998E-02
C26  3.575404611775E-01 -1.565926770014E-01 -8.029063786998E-02
C27 -4.271673087539E-01 -1.194092333377E-01  3.039602777409E-01
C28  4.271673087539E-01  1.194092333377E-01 -3.039602777409E-01
C29 -3.875973387110E-01 -7.665534400530E-02  3.851986556546E-01
C30  3.875973387110E-01  7.665534400530E-02 -3.851986556546E-01
C31 -2.102410763418E-01 -1.245536332216E-01  4.204473059027E-01
C32  2.102410763418E-01  1.245536332216E-01 -4.204473059027E-01
C33 -7.689845102778E-02 -2.120069621375E-01  3.730293440257E-01
C34  7.689845102778E-02  2.120069621375E-01 -3.730293440257E-01
C35 -1.102199343883E-01 -2.587777750794E-01  2.868795760311E-01
C36  1.102199343883E-01  2.587777750794E-01 -2.868795760311E-01
C37 -2.914996562168E-01 -2.117880976080E-01  2.513501661123E-01
C38  2.914996562168E-01  2.117880976080E-01 -2.513501661123E-01
C39 -3.277892690490E-01 -2.560114482893E-01  1.685133071854E-01
C40  3.277892690490E-01  2.560114482893E-01 -1.685133071854E-01
C41 -1.917653731151E-01 -3.448876302130E-01  1.168731861087E-01
C42  1.917653731151E-01  3.448876302130E-01 -1.168731861087E-01
C43 -9.833154364338E-03 -3.914220530454E-01  1.524293483978E-01
C44  9.833154364338E-03  3.914220530454E-01 -1.524293483978E-01
C45  2.415608969799E-02 -3.461776512251E-01  2.373307681158E-01
C46 -2.415608969799E-02  3.461776512251E-01 -2.373307681158E-01
C47 -2.269830885928E-01 -3.891554217866E-01  3.324584075512E-02
C48  2.269830885928E-01  3.891554217866E-01 -3.324584075512E-02
C49 -9.113377262047E-02 -4.768675833431E-01 -1.777847187279E-02
C50  9.113377262047E-02  4.768675833431E-01  1.777847187279E-02
C51  1.250533704424E-01 -4.794515356045E-01  1.020543546033E-01
C52 -1.250533704424E-01  4.794515356045E-01 -1.020543546033E-01
H53 -8.829444684495E-02  1.696995860597E-01  3.179394172165E-01
H54  8.829444684495E-02 -1.696995860597E-01 -3.179394172165E-01
H55 -3.050931803210E-03  3.628623469567E-01  4.458334158125E-01
H56  3.050931803210E-03 -3.628623469567E-01 -4.458334158125E-01
H57  3.365288992517E-01 -4.749876857236E-01  4.673572238676E-01
H58 -3.365288992517E-01  4.749876857236E-01 -4.673572238676E-01
H59 -4.099989748782E-01  4.938541499139E-01  3.611543300131E-01
H60  4.099989748782E-01 -4.938541499139E-01 -3.611543300131E-01
H61  1.082260140696E-02  3.829234869564E-02  1.814905858514E-01
H62 -1.082260140696E-02 -3.829234869564E-02 -1.814905858514E-01
H63 -3.097683693301E-01  3.598022881104E-01  2.253646252510E-01
H64  3.097683693301E-01 -3.598022881104E-01 -2.253646252510E-01
H65  1.095908901321E-01 -9.309554357573E-02  4.547983714044E-02
H66 -1.095908901321E-01  9.309554357573E-02 -4.547983714044E-02
H67 -2.095289206002E-01  2.262995862683E-01  8.993713207294E-02
H68  2.095289206002E-01 -2.262995862683E-01 -8.993713207294E-02
H69  4.382255596823E-01 -8.326952787128E-02  2.773856821914E-01
H70 -4.382255596823E-01  8.326952787128E-02 -2.773856821914E-01
H71 -4.905721391239E-01 -4.300816414082E-03  4.235861800329E-01
H72  4.905721391239E-01  4.300816414082E-03 -4.235861800329E-01
H73 -1.816768612049E-01 -9.019117790712E-02  4.854291014530E-01
H74  1.816768612049E-01  9.019117790712E-02 -4.854291014530E-01
H75  5.818158227294E-02 -2.479013612492E-01  3.994481381249E-01
H76 -5.818158227294E-02  2.479013612492E-01 -3.994481381249E-01
H77 -4.634757576782E-01 -2.212974449730E-01  1.420227249784E-01
H78  4.634757576782E-01  2.212974449730E-01 -1.420227249784E-01
H79  1.597212831701E-01 -3.808792486740E-01  2.639607694541E-01
H80 -1.597212831701E-01  3.808792486740E-01 -2.639607694541E-01
H81 -3.627481420562E-01 -3.545688559180E-01  6.758004552558E-03
H82  3.627481420562E-01  3.545688559180E-01 -6.758004552558E-03
H83  2.607537680727E-01  4.858875939432E-01  1.285862935722E-01
H84 -2.607537680727E-01 -4.858875939432E-01 -1.285862935722E-01


#===END

data_OPT_STEP_24

_symmetry_space_group_name_H-M 'P 1'
_cell_length_a      6.62427008
_cell_length_b      8.18002166
_cell_length_c     16.72965126
_cell_angle_alpha  100.236200
_cell_angle_beta   90.380374
_cell_angle_gamma   95.511775

loop_
_atom_site_label
_atom_site_fract_x
_atom_site_fract_y
_atom_site_fract_z
C1  5.918885467702E-02  2.392970056895E-01  3.271019159683E-01
C2 -5.918885467702E-02 -2.392970056895E-01 -3.271019159683E-01
C3  1.067570837095E-01  3.469597766308E-01  3.978275238701E-01
C4 -1.067570837095E-01 -3.469597766308E-01 -3.978275238701E-01
C5  3.018833545176E-01  4.402070645147E-01  4.104171143465E-01
C6 -3.018833545176E-01 -4.402070645147E-01 -4.104171143465E-01
C7  4.434638623587E-01  4.231749363934E-01  3.518096243831E-01
C8 -4.434638623587E-01 -4.231749363934E-01 -3.518096243831E-01
C9  4.016254716442E-01  3.103118587475E-01  2.762730106276E-01
C10 -4.016254716442E-01 -3.103118587475E-01 -2.762730106276E-01
C11  2.033164599767E-01  2.159287314244E-01  2.634672200056E-01
C12 -2.033164599767E-01 -2.159287314244E-01 -2.634672200056E-01
C13  1.586991858983E-01  1.074553710926E-01  1.908823244496E-01
C14 -1.586991858983E-01 -1.074553710926E-01 -1.908823244496E-01
C15  3.015908863361E-01  8.490720198623E-02  1.284119589547E-01
C16 -3.015908863361E-01 -8.490720198623E-02 -1.284119589547E-01
C17 -4.995630358725E-01  1.790602351294E-01  1.413699375241E-01
C18  4.995630358725E-01 -1.790602351294E-01 -1.413699375241E-01
C19 -4.569841228608E-01  2.901912627557E-01  2.157841274557E-01
C20  4.569841228608E-01 -2.901912627557E-01 -2.157841274557E-01
C21  2.579092627967E-01 -2.497266810557E-02  5.523743000041E-02
C22 -2.579092627967E-01  2.497266810557E-02 -5.523743000041E-02
C23  4.004506246644E-01 -4.704059945475E-02 -6.505375822639E-03
C24 -4.004506246644E-01  4.704059945475E-02  6.505375822639E-03
C25 -3.573975184221E-01  1.576861694202E-01  8.021256722053E-02
C26  3.573975184221E-01 -1.576861694202E-01 -8.021256722053E-02
C27 -4.267880591824E-01 -1.200725401176E-01  3.040169383418E-01
C28  4.267880591824E-01  1.200725401176E-01 -3.040169383418E-01
C29 -3.871294966670E-01 -7.761951121217E-02  3.852525985456E-01
C30  3.871294966670E-01  7.761951121217E-02 -3.852525985456E-01
C31 -2.094849442683E-01 -1.254157651677E-01  4.205244337637E-01
C32  2.094849442683E-01  1.254157651677E-01 -4.205244337637E-01
C33 -7.575871764940E-02 -2.123004844799E-01  3.730901195177E-01
C34  7.575871764940E-02  2.123004844799E-01 -3.730901195177E-01
C35 -1.095476251012E-01 -2.592969926957E-01  2.869556414710E-01
C36  1.095476251012E-01  2.592969926957E-01 -2.869556414710E-01
C37 -2.908377699104E-01 -2.119302483249E-01  2.513914812907E-01
C38  2.908377699104E-01  2.119302483249E-01 -2.513914812907E-01
C39 -3.267799653150E-01 -2.551510301533E-01  1.684778563677E-01
C40  3.267799653150E-01  2.551510301533E-01 -1.684778563677E-01
C41 -1.910921404367E-01 -3.443983677387E-01  1.168596212843E-01
C42  1.910921404367E-01  3.443983677387E-01 -1.168596212843E-01
C43 -9.307058813367E-03 -3.915404718250E-01  1.524715514738E-01
C44  9.307058813367E-03  3.915404718250E-01 -1.524715514738E-01
C45  2.461298659853E-02 -3.469280751790E-01  2.374269956381E-01
C46 -2.461298659853E-02  3.469280751790E-01 -2.374269956381E-01
C47 -2.264206426299E-01 -3.883072805472E-01  3.318322544139E-02
C48  2.264206426299E-01  3.883072805472E-01 -3.318322544139E-02
C49 -9.101035895078E-02 -4.765251740301E-01 -1.781311049023E-02
C50  9.101035895078E-02  4.765251740301E-01  1.781311049023E-02
C51  1.255244796352E-01 -4.794135125199E-01  1.020866364989E-01
C52 -1.255244796352E-01  4.794135125199E-01 -1.020866364989E-01
H53 -8.873224509317E-02  1.687988594850E-01  3.176639678711E-01
H54  8.873224509317E-02 -1.687988594850E-01 -3.176639678711E-01
H55 -3.272720420099E-03  3.626988748234E-01  4.455112782884E-01
H56  3.272720420099E-03 -3.626988748234E-01 -4.455112782884E-01
H57  3.369418199740E-01 -4.743324404832E-01  4.672069400686E-01
H58 -3.369418199740E-01  4.743324404832E-01 -4.672069400686E-01
H59 -4.091930500235E-01  4.947870547807E-01  3.611706341406E-01
H60  4.091930500235E-01 -4.947870547807E-01 -3.611706341406E-01
H61  1.027003072615E-02  3.760364802050E-02  1.812182125952E-01
H62 -1.027003072615E-02 -3.760364802050E-02 -1.812182125952E-01
H63 -3.087522833497E-01  3.603867548214E-01  2.255295701882E-01
H64  3.087522833497E-01 -3.603867548214E-01 -2.255295701882E-01
H65  1.096215466642E-01 -9.509795434669E-02  4.557941750856E-02
H66 -1.096215466642E-01  9.509795434669E-02 -4.557941750856E-02
H67 -2.090159535600E-01  2.275986744011E-01  8.997274959616E-02
H68  2.090159535600E-01 -2.275986744011E-01 -8.997274959616E-02
H69  4.378401289041E-01 -8.477102812195E-02  2.774887376993E-01
H70 -4.378401289041E-01  8.477102812195E-02 -2.774887376993E-01
H71 -4.901183975885E-01 -5.444465224960E-03  4.236619464940E-01
H72  4.901183975885E-01  5.444465224960E-03 -4.236619464940E-01
H73 -1.812155042422E-01 -9.175386185361E-02  4.855594504695E-01
H74  1.812155042422E-01  9.175386185361E-02 -4.855594504695E-01
H75  5.963800450311E-02 -2.480616646234E-01  3.994881781820E-01
H76 -5.963800450311E-02  2.480616646234E-01 -3.994881781820E-01
H77 -4.627340053810E-01 -2.205332558689E-01  1.419808852566E-01
H78  4.627340053810E-01  2.205332558689E-01 -1.419808852566E-01
H79  1.599770291005E-01 -3.821939303511E-01  2.641032209319E-01
H80 -1.599770291005E-01  3.821939303511E-01 -2.641032209319E-01
H81 -3.625626791403E-01 -3.539904463531E-01  6.696054239307E-03
H82  3.625626791403E-01  3.539904463531E-01 -6.696054239307E-03
H83  2.611423888195E-01  4.855511005380E-01  1.286611204059E-01
H84 -2.611423888195E-01 -4.855511005380E-01 -1.286611204059E-01


#===END

data_OPT_STEP_25

_symmetry_space_group_name_H-M 'P 1'
_cell_length_a      6.61290446
_cell_length_b      8.20024296
_cell_length_c     16.73558039
_cell_angle_alpha  100.367426
_cell_angle_beta   90.561669
_cell_angle_gamma   95.443612

loop_
_atom_site_label
_atom_site_fract_x
_atom_site_fract_y
_atom_site_fract_z
C1  5.910778454694E-02  2.390878309324E-01  3.268709120671E-01
C2 -5.910778454694E-02 -2.390878309324E-01 -3.268709120671E-01
C3  1.066300814200E-01  3.469211369744E-01  3.976312093410E-01
C4 -1.066300814200E-01 -3.469211369744E-01 -3.976312093410E-01
C5  3.018187809700E-01  4.403382391668E-01  4.103679468148E-01
C6 -3.018187809700E-01 -4.403382391668E-01 -4.103679468148E-01
C7  4.435231612256E-01  4.232409476516E-01  3.518848005936E-01
C8 -4.435231612256E-01 -4.232409476516E-01 -3.518848005936E-01
C9  4.014661571246E-01  3.107246081131E-01  2.761984107125E-01
C10 -4.014661571246E-01 -3.107246081131E-01 -2.761984107125E-01
C11  2.032312570195E-01  2.159392223185E-01  2.632941970015E-01
C12 -2.032312570195E-01 -2.159392223185E-01 -2.632941970015E-01
C13  1.591027282133E-01  1.064349944744E-01  1.908762688069E-01
C14 -1.591027282133E-01 -1.064349944744E-01 -1.908762688069E-01
C15  3.015397792342E-01  8.488528290348E-02  1.282748346893E-01
C16 -3.015397792342E-01 -8.488528290348E-02 -1.282748346893E-01
C17 -4.997311533315E-01  1.794979236077E-01  1.413203957908E-01
C18  4.997311533315E-01 -1.794979236077E-01 -1.413203957908E-01
C19 -4.571229064852E-01  2.906870193112E-01  2.157949740059E-01
C20  4.571229064852E-01 -2.906870193112E-01 -2.157949740059E-01
C21  2.575300477943E-01 -2.448563069286E-02  5.490368213362E-02
C22 -2.575300477943E-01  2.448563069286E-02 -5.490368213362E-02
C23  4.005045441715E-01 -4.725432307514E-02 -6.549758173207E-03
C24 -4.005045441715E-01  4.725432307514E-02  6.549758173207E-03
C25 -3.575204198233E-01  1.581263304678E-01  8.027100779727E-02
C26  3.575204198233E-01 -1.581263304678E-01 -8.027100779727E-02
C27 -4.265416203408E-01 -1.199643411908E-01  3.039325512755E-01
C28  4.265416203408E-01  1.199643411908E-01 -3.039325512755E-01
C29 -3.869971359226E-01 -7.817318904001E-02  3.852569827349E-01
C30  3.869971359226E-01  7.817318904001E-02 -3.852569827349E-01
C31 -2.086304559586E-01 -1.254512949699E-01  4.205886625799E-01
C32  2.086304559586E-01  1.254512949699E-01 -4.205886625799E-01
C33 -7.468738688857E-02 -2.121123468648E-01  3.731880848948E-01
C34  7.468738688857E-02  2.121123468648E-01 -3.731880848948E-01
C35 -1.085315162433E-01 -2.587612677725E-01  2.869780743390E-01
C36  1.085315162433E-01  2.587612677725E-01 -2.869780743390E-01
C37 -2.907596244710E-01 -2.121760500733E-01  2.513683843079E-01
C38  2.907596244710E-01  2.121760500733E-01 -2.513683843079E-01
C39 -3.273444373178E-01 -2.558773857659E-01  1.684407372807E-01
C40  3.273444373178E-01  2.558773857659E-01 -1.684407372807E-01
C41 -1.916656446619E-01 -3.452464995963E-01  1.168707810332E-01
C42  1.916656446619E-01  3.452464995963E-01 -1.168707810332E-01
C43 -8.950716961215E-03 -3.916801407825E-01  1.525385677354E-01
C44  8.950716961215E-03  3.916801407825E-01 -1.525385677354E-01
C45  2.587565216215E-02 -3.461566491649E-01  2.374842220841E-01
C46 -2.587565216215E-02  3.461566491649E-01 -2.374842220841E-01
C47 -2.268864091712E-01 -3.884971568672E-01  3.310008136764E-02
C48  2.268864091712E-01  3.884971568672E-01 -3.310008136764E-02
C49 -9.121340141180E-02 -4.764688486191E-01 -1.786851683792E-02
C50  9.121340141180E-02  4.764688486191E-01  1.786851683792E-02
C51  1.261914185114E-01 -4.792662796860E-01  1.021848272337E-01
C52 -1.261914185114E-01  4.792662796860E-01 -1.021848272337E-01
H53 -8.886400641911E-02  1.684337133246E-01  3.173269017172E-01
H54  8.886400641911E-02 -1.684337133246E-01 -3.173269017172E-01
H55 -3.423638539224E-03  3.625177157540E-01  4.452455822534E-01
H56  3.423638539224E-03 -3.625177157540E-01 -4.452455822534E-01
H57  3.368014898344E-01 -4.739640184331E-01  4.671567423454E-01
H58 -3.368014898344E-01  4.739640184331E-01 -4.671567423454E-01
H59 -4.088226390470E-01  4.944894109192E-01  3.614779060134E-01
H60  4.088226390470E-01 -4.944894109192E-01 -3.614779060134E-01
H61  1.091281869164E-02  3.588533006437E-02  1.812351375519E-01
H62 -1.091281869164E-02 -3.588533006437E-02 -1.812351375519E-01
H63 -3.086273012302E-01  3.606562211897E-01  2.257375126981E-01
H64  3.086273012302E-01 -3.606562211897E-01 -2.257375126981E-01
H65  1.089854975380E-01 -9.434990475386E-02  4.503762781723E-02
H66 -1.089854975380E-01  9.434990475386E-02 -4.503762781723E-02
H67 -2.089988293321E-01  2.280120723878E-01  9.017916922672E-02
H68  2.089988293321E-01 -2.280120723878E-01 -9.017916922672E-02
H69  4.378522562328E-01 -8.458199932855E-02  2.773459465770E-01
H70 -4.378522562328E-01  8.458199932855E-02 -2.773459465770E-01
H71 -4.901109782595E-01 -6.269624742560E-03  4.236947235025E-01
H72  4.901109782595E-01  6.269624742560E-03 -4.236947235025E-01
H73 -1.799776058365E-01 -9.153919942365E-02  4.856373107873E-01
H74  1.799776058365E-01  9.153919942365E-02 -4.856373107873E-01
H75  6.102436258258E-02 -2.477781234571E-01  3.996481034410E-01
H76 -6.102436258258E-02  2.477781234571E-01 -3.996481034410E-01
H77 -4.637169472091E-01 -2.214588859190E-01  1.418987941742E-01
H78  4.637169472091E-01  2.214588859190E-01 -1.418987941742E-01
H79  1.620059166166E-01 -3.806811634020E-01  2.641755838882E-01
H80 -1.620059166166E-01  3.806811634020E-01 -2.641755838882E-01
H81 -3.631372548315E-01 -3.539205842474E-01  6.532910503819E-03
H82  3.631372548315E-01  3.539205842474E-01 -6.532910503819E-03
H83  2.618176217481E-01  4.853134152776E-01  1.288511452377E-01
H84 -2.618176217481E-01 -4.853134152776E-01 -1.288511452377E-01


#===END

data_OPT_STEP_26

_symmetry_space_group_name_H-M 'P 1'
_cell_length_a      6.61075402
_cell_length_b      8.20387620
_cell_length_c     16.73830696
_cell_angle_alpha  100.405148
_cell_angle_beta   90.595567
_cell_angle_gamma   95.458552

loop_
_atom_site_label
_atom_site_fract_x
_atom_site_fract_y
_atom_site_fract_z
C1  5.929411876696E-02  2.388705379852E-01  3.268621547966E-01
C2 -5.929411876696E-02 -2.388705379852E-01 -3.268621547966E-01
C3  1.067772113441E-01  3.468632045228E-01  3.976101786310E-01
C4 -1.067772113441E-01 -3.468632045228E-01 -3.976101786310E-01
C5  3.018419918804E-01  4.406703645435E-01  4.103179121838E-01
C6 -3.018419918804E-01 -4.406703645435E-01 -4.103179121838E-01
C7  4.436224134093E-01  4.234432973897E-01  3.518950458371E-01
C8 -4.436224134093E-01 -4.234432973897E-01 -3.518950458371E-01
C9  4.016071215792E-01  3.107518276618E-01  2.762228011761E-01
C10 -4.016071215792E-01 -3.107518276618E-01 -2.762228011761E-01
C11  2.032961234584E-01  2.159740819338E-01  2.632579352790E-01
C12 -2.032961234584E-01 -2.159740819338E-01 -2.632579352790E-01
C13  1.589945126315E-01  1.066890611916E-01  1.907602157998E-01
C14 -1.589945126315E-01 -1.066890611916E-01 -1.907602157998E-01
C15  3.016296492307E-01  8.476740628031E-02  1.282751824371E-01
C16 -3.016296492307E-01 -8.476740628031E-02 -1.282751824371E-01
C17 -4.995551464409E-01  1.793318487149E-01  1.413860713776E-01
C18  4.995551464409E-01 -1.793318487149E-01 -1.413860713776E-01
C19 -4.568896147659E-01  2.905391152920E-01  2.158822461724E-01
C20  4.568896147659E-01 -2.905391152920E-01 -2.158822461724E-01
C21  2.576698161196E-01 -2.480519363209E-02  5.492980138442E-02
C22 -2.576698161196E-01  2.480519363209E-02 -5.492980138442E-02
C23  4.004762400822E-01 -4.725128427470E-02 -6.578974942195E-03
C24 -4.004762400822E-01  4.725128427470E-02  6.578974942195E-03
C25 -3.572767012684E-01  1.578100196376E-01  8.039749173938E-02
C26  3.572767012684E-01 -1.578100196376E-01 -8.039749173938E-02
C27 -4.264701822726E-01 -1.199411736560E-01  3.039038868763E-01
C28  4.264701822726E-01  1.199411736560E-01 -3.039038868763E-01
C29 -3.868892476227E-01 -7.824649515986E-02  3.852568121870E-01
C30  3.868892476227E-01  7.824649515986E-02 -3.852568121870E-01
C31 -2.086724416953E-01 -1.257934559959E-01  4.206104812009E-01
C32  2.086724416953E-01  1.257934559959E-01 -4.206104812009E-01
C33 -7.469424711477E-02 -2.123035896099E-01  3.731976429871E-01
C34  7.469424711477E-02  2.123035896099E-01 -3.731976429871E-01
C35 -1.085420430447E-01 -2.588536651523E-01  2.869684451282E-01
C36  1.085420430447E-01  2.588536651523E-01 -2.869684451282E-01
C37 -2.907933839150E-01 -2.122653117155E-01  2.513404029885E-01
C38  2.907933839150E-01  2.122653117155E-01 -2.513404029885E-01
C39 -3.274440001897E-01 -2.559968939612E-01  1.684073474438E-01
C40  3.274440001897E-01  2.559968939612E-01 -1.684073474438E-01
C41 -1.916691177234E-01 -3.452128726370E-01  1.168410318764E-01
C42  1.916691177234E-01  3.452128726370E-01 -1.168410318764E-01
C43 -8.952491376933E-03 -3.917111411519E-01  1.525347818920E-01
C44  8.952491376933E-03  3.917111411519E-01 -1.525347818920E-01
C45  2.580070598431E-02 -3.463146239507E-01  2.374947309767E-01
C46 -2.580070598431E-02  3.463146239507E-01 -2.374947309767E-01
C47 -2.270202419676E-01 -3.886056421809E-01  3.307781373243E-02
C48  2.270202419676E-01  3.886056421809E-01 -3.307781373243E-02
C49 -9.131686563345E-02 -4.765585793997E-01 -1.787266924723E-02
C50  9.131686563345E-02  4.765585793997E-01  1.787266924723E-02
C51  1.262696968990E-01 -4.792668174622E-01  1.022000121169E-01
C52 -1.262696968990E-01  4.792668174622E-01 -1.022000121169E-01
H53 -8.867584574100E-02  1.681014992263E-01  3.172999632283E-01
H54  8.867584574100E-02 -1.681014992263E-01 -3.172999632283E-01
H55 -3.269149820122E-03  3.623814800867E-01  4.452135366941E-01
H56  3.269149820122E-03 -3.623814800867E-01 -4.452135366941E-01
H57  3.368553514024E-01 -4.736535745420E-01  4.671333915800E-01
H58 -3.368553514024E-01  4.736535745420E-01 -4.671333915800E-01
H59 -4.087682699519E-01  4.948869971524E-01  3.614890771884E-01
H60  4.087682699519E-01 -4.948869971524E-01 -3.614890771884E-01
H61  1.071444772966E-02  3.620955550343E-02  1.810601099937E-01
H62 -1.071444772966E-02 -3.620955550343E-02 -1.810601099937E-01
H63 -3.084953128001E-01  3.607969140534E-01  2.257936281903E-01
H64  3.084953128001E-01 -3.607969140534E-01 -2.257936281903E-01
H65  1.092368980271E-01 -9.498039065960E-02  4.510138457214E-02
H66 -1.092368980271E-01  9.498039065960E-02 -4.510138457214E-02
H67 -2.088133835888E-01  2.279114199673E-01  9.029127225893E-02
H68  2.088133835888E-01 -2.279114199673E-01 -9.029127225893E-02
H69  4.381616572114E-01 -8.414448158653E-02  2.772854777871E-01
H70 -4.381616572114E-01  8.414448158653E-02 -2.772854777871E-01
H71 -4.898706157027E-01 -6.255741452052E-03  4.237129797654E-01
H72  4.898706157027E-01  6.255741452052E-03 -4.237129797654E-01
H73 -1.800116911022E-01 -9.196236840011E-02  4.856694229263E-01
H74  1.800116911022E-01  9.196236840011E-02 -4.856694229263E-01
H75  6.116866268018E-02 -2.477748169212E-01  3.996578276504E-01
H76 -6.116866268018E-02  2.477748169212E-01 -3.996578276504E-01
H77 -4.636733795712E-01 -2.213197979728E-01  1.418354288349E-01
H78  4.636733795712E-01  2.213197979728E-01 -1.418354288349E-01
H79  1.618957604514E-01 -3.809288471449E-01  2.642073017571E-01
H80 -1.618957604514E-01  3.809288471449E-01 -2.642073017571E-01
H81 -3.631661381421E-01 -3.538264986020E-01  6.482451188484E-03
H82  3.631661381421E-01  3.538264986020E-01 -6.482451188484E-03
H83  2.620005742714E-01  4.854189144619E-01  1.288757141632E-01
H84 -2.620005742714E-01 -4.854189144619E-01 -1.288757141632E-01


#===END

data_OPT_STEP_27

_symmetry_space_group_name_H-M 'P 1'
_cell_length_a      6.61110817
_cell_length_b      8.21196554
_cell_length_c     16.74202625
_cell_angle_alpha  100.488627
_cell_angle_beta   90.689749
_cell_angle_gamma   95.409310

loop_
_atom_site_label
_atom_site_fract_x
_atom_site_fract_y
_atom_site_fract_z
C1  5.960733299961E-02  2.384385536342E-01  3.268046696296E-01
C2 -5.960733299961E-02 -2.384385536342E-01 -3.268046696296E-01
C3  1.069541084747E-01  3.465590476273E-01  3.975857565475E-01
C4 -1.069541084747E-01 -3.465590476273E-01 -3.975857565475E-01
C5  3.016952559151E-01  4.407360819367E-01  4.103516665612E-01
C6 -3.016952559151E-01 -4.407360819367E-01 -4.103516665612E-01
C7  4.433007540777E-01  4.237224839785E-01  3.519527015569E-01
C8 -4.433007540777E-01 -4.237224839785E-01 -3.519527015569E-01
C9  4.014082239317E-01  3.109207987517E-01  2.762420554796E-01
C10 -4.014082239317E-01 -3.109207987517E-01 -2.762420554796E-01
C11  2.033688602168E-01  2.158771104692E-01  2.631946446966E-01
C12 -2.033688602168E-01 -2.158771104692E-01 -2.631946446966E-01
C13  1.590265357697E-01  1.067811451335E-01  1.905883404245E-01
C14 -1.590265357697E-01 -1.067811451335E-01 -1.905883404245E-01
C15  3.015914483147E-01  8.489487956491E-02  1.281644010680E-01
C16 -3.015914483147E-01 -8.489487956491E-02 -1.281644010680E-01
C17 -4.997185826058E-01  1.794588060653E-01  1.414200392303E-01
C18  4.997185826058E-01 -1.794588060653E-01 -1.414200392303E-01
C19 -4.571503320323E-01  2.907233138454E-01  2.159656605666E-01
C20  4.571503320323E-01 -2.907233138454E-01 -2.159656605666E-01
C21  2.577093306516E-01 -2.469249140628E-02  5.475871374567E-02
C22 -2.577093306516E-01  2.469249140628E-02 -5.475871374567E-02
C23  4.005115695902E-01 -4.720280641455E-02 -6.663157966812E-03
C24 -4.005115695902E-01  4.720280641455E-02  6.663157966812E-03
C25 -3.575180214069E-01  1.579987746818E-01  8.048568880932E-02
C26  3.575180214069E-01 -1.579987746818E-01 -8.048568880932E-02
C27 -4.262929216823E-01 -1.199308521636E-01  3.038713234614E-01
C28  4.262929216823E-01  1.199308521636E-01 -3.038713234614E-01
C29 -3.865141382603E-01 -7.807428880797E-02  3.852528795972E-01
C30  3.865141382603E-01  7.807428880797E-02 -3.852528795972E-01
C31 -2.081613882707E-01 -1.254746379697E-01  4.206397491495E-01
C32  2.081613882707E-01  1.254746379697E-01 -4.206397491495E-01
C33 -7.436339550521E-02 -2.121590020236E-01  3.732477445299E-01
C34  7.436339550521E-02  2.121590020236E-01 -3.732477445299E-01
C35 -1.083256705235E-01 -2.587480153006E-01  2.869893826806E-01
C36  1.083256705235E-01  2.587480153006E-01 -2.869893826806E-01
C37 -2.904276122343E-01 -2.119100714682E-01  2.512923861494E-01
C38  2.904276122343E-01  2.119100714682E-01 -2.512923861494E-01
C39 -3.270311671077E-01 -2.554985130797E-01  1.683187788190E-01
C40  3.270311671077E-01  2.554985130797E-01 -1.683187788190E-01
C41 -1.913837707135E-01 -3.448564401358E-01  1.167864918102E-01
C42  1.913837707135E-01  3.448564401358E-01 -1.167864918102E-01
C43 -8.750193913296E-03 -3.914972998174E-01  1.525438223238E-01
C44  8.750193913296E-03  3.914972998174E-01 -1.525438223238E-01
C45  2.597361616551E-02 -3.462115814650E-01  2.375382486779E-01
C46 -2.597361616551E-02  3.462115814650E-01 -2.375382486779E-01
C47 -2.269629737856E-01 -3.885355433132E-01  3.301767367806E-02
C48  2.269629737856E-01  3.885355433132E-01 -3.301767367806E-02
C49 -9.133769139538E-02 -4.765693598708E-01 -1.789892078634E-02
C50  9.133769139538E-02  4.765693598708E-01  1.789892078634E-02
C51  1.265192582932E-01 -4.789847617837E-01  1.022329213242E-01
C52 -1.265192582932E-01  4.789847617837E-01 -1.022329213242E-01
H53 -8.804235309669E-02  1.672036560820E-01  3.172525733015E-01
H54  8.804235309669E-02 -1.672036560820E-01 -3.172525733015E-01
H55 -3.056621130607E-03  3.620684555466E-01  4.451364156607E-01
H56  3.056621130607E-03 -3.620684555466E-01 -4.451364156607E-01
H57  3.366755155374E-01 -4.736345170545E-01  4.672227427666E-01
H58 -3.366755155374E-01  4.736345170545E-01 -4.672227427666E-01
H59 -4.093743867795E-01  4.955495785662E-01  3.615594253520E-01
H60  4.093743867795E-01 -4.955495785662E-01 -3.615594253520E-01
H61  1.092845714420E-02  3.609998524035E-02  1.808390394601E-01
H62 -1.092845714420E-02 -3.609998524035E-02 -1.808390394601E-01
H63 -3.089945829343E-01  3.612742423084E-01  2.259044312786E-01
H64  3.089945829343E-01 -3.612742423084E-01 -2.259044312786E-01
H65  1.093339011019E-01 -9.482672601968E-02  4.482141324640E-02
H66 -1.093339011019E-01  9.482672601968E-02 -4.482141324640E-02
H67 -2.092739186532E-01  2.283634805190E-01  9.041268008710E-02
H68  2.092739186532E-01 -2.283634805190E-01 -9.041268008710E-02
H69  4.383229385911E-01 -8.410880864664E-02  2.772212986910E-01
H70 -4.383229385911E-01  8.410880864664E-02 -2.772212986910E-01
H71 -4.895447959422E-01 -6.239617539334E-03  4.237223416579E-01
H72  4.895447959422E-01  6.239617539334E-03 -4.237223416579E-01
H73 -1.793475232876E-01 -9.151323603840E-02  4.857084694350E-01
H74  1.793475232876E-01  9.151323603840E-02 -4.857084694350E-01
H75  6.152006830664E-02 -2.476552539550E-01  3.997341461472E-01
H76 -6.152006830664E-02  2.476552539550E-01 -3.997341461472E-01
H77 -4.631438549605E-01 -2.206135284457E-01  1.416950641318E-01
H78  4.631438549605E-01  2.206135284457E-01 -1.416950641318E-01
H79  1.619820674457E-01 -3.809873972731E-01  2.642983012247E-01
H80 -1.619820674457E-01  3.809873972731E-01 -2.642983012247E-01
H81 -3.631945767439E-01 -3.538517868167E-01  6.388913384820E-03
H82  3.631945767439E-01  3.538517868167E-01 -6.388913384820E-03
H83  2.626268863234E-01  4.862176340849E-01  1.289136371660E-01
H84 -2.626268863234E-01 -4.862176340849E-01 -1.289136371660E-01


#===END

data_OPT_STEP_28

_symmetry_space_group_name_H-M 'P 1'
_cell_length_a      6.60063252
_cell_length_b      8.18724593
_cell_length_c     16.74306244
_cell_angle_alpha  100.477687
_cell_angle_beta   90.831027
_cell_angle_gamma   95.409829

loop_
_atom_site_label
_atom_site_fract_x
_atom_site_fract_y
_atom_site_fract_z
C1  5.951619888988E-02  2.385872952656E-01  3.265210844690E-01
C2 -5.951619888988E-02 -2.385872952656E-01 -3.265210844690E-01
C3  1.069300883035E-01  3.472127126586E-01  3.972853373740E-01
C4 -1.069300883035E-01 -3.472127126586E-01 -3.972853373740E-01
C5  3.018825891354E-01  4.419506532268E-01  4.101485370087E-01
C6 -3.018825891354E-01 -4.419506532268E-01 -4.101485370087E-01
C7  4.436527306487E-01  4.249383318559E-01  3.518704652845E-01
C8 -4.436527306487E-01 -4.249383318559E-01 -3.518704652845E-01
C9  4.016245791389E-01  3.117535432496E-01  2.761470367820E-01
C10 -4.016245791389E-01 -3.117535432496E-01 -2.761470367820E-01
C11  2.034100128409E-01  2.160426349180E-01  2.630225676031E-01
C12 -2.034100128409E-01 -2.160426349180E-01 -2.630225676031E-01
C13  1.589851181373E-01  1.064599343984E-01  1.904285364906E-01
C14 -1.589851181373E-01 -1.064599343984E-01 -1.904285364906E-01
C15  3.017200450297E-01  8.453657648490E-02  1.281280559519E-01
C16 -3.017200450297E-01 -8.453657648490E-02 -1.281280559519E-01
C17 -4.995184499464E-01  1.799522492506E-01  1.414149783643E-01
C18  4.995184499464E-01 -1.799522492506E-01 -1.414149783643E-01
C19 -4.568395849949E-01  2.916677422803E-01  2.159594102462E-01
C20  4.568395849949E-01 -2.916677422803E-01 -2.159594102462E-01
C21  2.578456606961E-01 -2.571379364055E-02  5.477679898084E-02
C22 -2.578456606961E-01  2.571379364055E-02 -5.477679898084E-02
C23  4.005103404951E-01 -4.768896823426E-02 -6.664209481880E-03
C24 -4.005103404951E-01  4.768896823426E-02  6.664209481880E-03
C25 -3.573828557230E-01  1.588834615934E-01  8.049850993997E-02
C26  3.573828557230E-01 -1.588834615934E-01 -8.049850993997E-02
C27 -4.263387225985E-01 -1.200167699109E-01  3.038477406986E-01
C28  4.263387225985E-01  1.200167699109E-01 -3.038477406986E-01
C29 -3.861288935043E-01 -7.812022179649E-02  3.852460629199E-01
C30  3.861288935043E-01  7.812022179649E-02 -3.852460629199E-01
C31 -2.073386344905E-01 -1.257200436061E-01  4.206672831886E-01
C32  2.073386344905E-01  1.257200436061E-01 -4.206672831886E-01
C33 -7.353871541089E-02 -2.126180916921E-01  3.732955959829E-01
C34  7.353871541089E-02  2.126180916921E-01 -3.732955959829E-01
C35 -1.077690443589E-01 -2.589973597980E-01  2.870089959551E-01
C36  1.077690443589E-01  2.589973597980E-01 -2.870089959551E-01
C37 -2.903001333052E-01 -2.119527394525E-01  2.512705815416E-01
C38  2.903001333052E-01  2.119527394525E-01 -2.512705815416E-01
C39 -3.272445024157E-01 -2.554967365569E-01  1.682778733768E-01
C40  3.272445024157E-01  2.554967365569E-01 -1.682778733768E-01
C41 -1.914565552729E-01 -3.448633931183E-01  1.167615394783E-01
C42  1.914565552729E-01  3.448633931183E-01 -1.167615394783E-01
C43 -8.259261052842E-03 -3.914873845312E-01  1.525484291943E-01
C44  8.259261052842E-03  3.914873845312E-01 -1.525484291943E-01
C45  2.675039080534E-02 -3.463400384581E-01  2.375652946205E-01
C46 -2.675039080534E-02  3.463400384581E-01 -2.375652946205E-01
C47 -2.274865625615E-01 -3.886799693797E-01  3.298975796271E-02
C48  2.274865625615E-01  3.886799693797E-01 -3.298975796271E-02
C49 -9.169934471302E-02 -4.766898536348E-01 -1.790629602287E-02
C50  9.169934471302E-02  4.766898536348E-01  1.790629602287E-02
C51  1.271748155684E-01 -4.789681558999E-01  1.022588199754E-01
C52 -1.271748155684E-01  4.789681558999E-01 -1.022588199754E-01
H53 -8.821592314062E-02  1.667908691656E-01  3.169292185152E-01
H54  8.821592314062E-02 -1.667908691656E-01 -3.169292185152E-01
H55 -3.197694185894E-03  3.627089075827E-01  4.447628571509E-01
H56  3.197694185894E-03 -3.627089075827E-01 -4.447628571509E-01
H57  3.370119661276E-01 -4.722668008775E-01  4.670731721522E-01
H58 -3.370119661276E-01  4.722668008775E-01 -4.670731721522E-01
H59 -4.088744774097E-01  4.972113147395E-01  3.615446064147E-01
H60  4.088744774097E-01 -4.972113147395E-01 -3.615446064147E-01
H61  1.081605989267E-02  3.519655157297E-02  1.806476424562E-01
H62 -1.081605989267E-02 -3.519655157297E-02 -1.806476424562E-01
H63 -3.086481301503E-01  3.628611240114E-01  2.259129826526E-01
H64  3.086481301503E-01 -3.628611240114E-01 -2.259129826526E-01
H65  1.094222821664E-01 -9.647961668587E-02  4.482246010474E-02
H66 -1.094222821664E-01  9.647961668587E-02 -4.482246010474E-02
H67 -2.090946665857E-01  2.298913846426E-01  9.044003772415E-02
H68  2.090946665857E-01 -2.298913846426E-01 -9.044003772415E-02
H69  4.380361104421E-01 -8.394407839034E-02  2.771553518390E-01
H70 -4.380361104421E-01  8.394407839034E-02 -2.771553518390E-01
H71 -4.892802050531E-01 -6.344109154275E-03  4.237409758446E-01
H72  4.892802050531E-01  6.344109154276E-03 -4.237409758446E-01
H73 -1.782791507349E-01 -9.180947606656E-02  4.857589968680E-01
H74  1.782791507349E-01  9.180947606656E-02 -4.857589968680E-01
H75  6.261116315741E-02 -2.483452692791E-01  3.998122289234E-01
H76 -6.261116315741E-02  2.483452692791E-01 -3.998122289234E-01
H77 -4.636962249118E-01 -2.205147641712E-01  1.416179430607E-01
H78  4.636962249118E-01  2.205147641712E-01 -1.416179430607E-01
H79  1.630335278779E-01 -3.812998906940E-01  2.643636547703E-01
H80 -1.630335278779E-01  3.812998906940E-01 -2.643636547703E-01
H81 -3.641297607362E-01 -3.540165131346E-01  6.329122516969E-03
H82  3.641297607362E-01  3.540165131346E-01 -6.329122516969E-03
H83  2.638465274107E-01  4.864840605428E-01  1.289551809412E-01
H84 -2.638465274107E-01 -4.864840605428E-01 -1.289551809412E-01


#===END

data_OPT_STEP_29

_symmetry_space_group_name_H-M 'P 1'
_cell_length_a      6.60856789
_cell_length_b      8.20590768
_cell_length_c     16.76327477
_cell_angle_alpha  100.659618
_cell_angle_beta   90.875092
_cell_angle_gamma   95.482477

loop_
_atom_site_label
_atom_site_fract_x
_atom_site_fract_y
_atom_site_fract_z
C1  6.143552139754E-02  2.383986734830E-01  3.265785250062E-01
C2 -6.143552139754E-02 -2.383986734830E-01 -3.265785250062E-01
C3  1.088866788458E-01  3.472827563744E-01  3.973127394112E-01
C4 -1.088866788458E-01 -3.472827563744E-01 -3.973127394112E-01
C5  3.033316137879E-01  4.425462257100E-01  4.101196542189E-01
C6 -3.033316137879E-01 -4.425462257100E-01 -4.101196542189E-01
C7  4.449036710378E-01  4.252591746074E-01  3.519424133392E-01
C8 -4.449036710378E-01 -4.252591746074E-01 -3.519424133392E-01
C9  4.028925269808E-01  3.116786904909E-01  2.762675886347E-01
C10 -4.028925269808E-01 -3.116786904909E-01 -2.762675886347E-01
C11  2.049477300437E-01  2.157934310086E-01  2.631153311402E-01
C12 -2.049477300437E-01 -2.157934310086E-01 -2.631153311402E-01
C13  1.603283665537E-01  1.061561132789E-01  1.904972642960E-01
C14 -1.603283665537E-01 -1.061561132789E-01 -1.904972642960E-01
C15  3.027985420703E-01  8.396113480976E-02  1.282779880062E-01
C16 -3.027985420703E-01 -8.396113480976E-02 -1.282779880062E-01
C17 -4.987663880988E-01  1.796688929679E-01  1.415578527216E-01
C18  4.987663880988E-01 -1.796688929679E-01 -1.415578527216E-01
C19 -4.559178657581E-01  2.915370138737E-01  2.161147060410E-01
C20  4.559178657581E-01 -2.915370138737E-01 -2.161147060410E-01
C21  2.589122285301E-01 -2.675498698444E-02  5.499361044752E-02
C22 -2.589122285301E-01  2.675498698444E-02 -5.499361044752E-02
C23  4.006980456726E-01 -4.788528383008E-02 -6.649588609906E-03
C24 -4.006980456726E-01  4.788528383008E-02  6.649588609906E-03
C25 -3.572341175117E-01  1.589448557308E-01  8.056712623720E-02
C26  3.572341175117E-01 -1.589448557308E-01 -8.056712623720E-02
C27 -4.251096953456E-01 -1.201581506467E-01  3.038621273136E-01
C28  4.251096953456E-01  1.201581506467E-01 -3.038621273136E-01
C29 -3.850319442349E-01 -7.848600947024E-02  3.852576883220E-01
C30  3.850319442349E-01  7.848600947024E-02 -3.852576883220E-01
C31 -2.068955781435E-01 -1.264621292998E-01  4.206532019729E-01
C32  2.068955781435E-01  1.264621292998E-01 -4.206532019729E-01
C33 -7.331767694233E-02 -2.130972491024E-01  3.732351950461E-01
C34  7.331767694233E-02  2.130972491024E-01 -3.732351950461E-01
C35 -1.075582577378E-01 -2.593777962494E-01  2.869721891816E-01
C36  1.075582577378E-01  2.593777962494E-01 -2.869721891816E-01
C37 -2.895010184310E-01 -2.121165945977E-01  2.512590463026E-01
C38  2.895010184310E-01  2.121165945977E-01 -2.512590463026E-01
C39 -3.262670514710E-01 -2.554525575238E-01  1.682661266563E-01
C40  3.262670514710E-01  2.554525575238E-01 -1.682661266563E-01
C41 -1.908012211009E-01 -3.447181772191E-01  1.167366413608E-01
C42  1.908012211009E-01  3.447181772191E-01 -1.167366413608E-01
C43 -8.283386556488E-03 -3.916290154552E-01  1.525136160464E-01
C44  8.283386556488E-03  3.916290154552E-01 -1.525136160464E-01
C45  2.654569116485E-02 -3.467256816539E-01  2.375223037929E-01
C46 -2.654569116485E-02  3.467256816539E-01 -2.375223037929E-01
C47 -2.265955463773E-01 -3.882996262916E-01  3.296982278755E-02
C48  2.265955463773E-01  3.882996262916E-01 -3.296982278755E-02
C49 -9.141956328943E-02 -4.766456581878E-01 -1.789771170942E-02
C50  9.141956328943E-02  4.766456581878E-01  1.789771170942E-02
C51  1.264270217748E-01 -4.796036139593E-01  1.022656036252E-01
C52 -1.264270217748E-01  4.796036139593E-01 -1.022656036252E-01
H53 -8.597057002400E-02  1.662261288922E-01  3.170070493175E-01
H54  8.597057002400E-02 -1.662261288922E-01 -3.170070493175E-01
H55 -9.190293749835E-04  3.626747253948E-01  4.447683650355E-01
H56  9.190293749835E-04 -3.626747253948E-01 -4.447683650355E-01
H57  3.382071518470E-01 -4.711323123026E-01  4.669490764198E-01
H58 -3.382071518470E-01  4.711323123026E-01 -4.669490764198E-01
H59 -4.079101743919E-01  4.978285336803E-01  3.616364105441E-01
H60  4.079101743919E-01 -4.978285336803E-01 -3.616364105441E-01
H61  1.241517784771E-02  3.464145745008E-02  1.807096239582E-01
H62 -1.241517784771E-02 -3.464145745008E-02 -1.807096239582E-01
H63 -3.080428456785E-01  3.631296746918E-01  2.260462198795E-01
H64  3.080428456785E-01 -3.631296746918E-01 -2.260462198795E-01
H65  1.108009175855E-01 -9.788328690890E-02  4.506326885023E-02
H66 -1.108009175855E-01  9.788328690890E-02 -4.506326885023E-02
H67 -2.091130477370E-01  2.300480313345E-01  9.055206832648E-02
H68  2.091130477370E-01 -2.300480313345E-01 -9.055206832648E-02
H69  4.397975697415E-01 -8.367137575364E-02  2.771727506725E-01
H70 -4.397975697415E-01  8.367137575364E-02 -2.771727506725E-01
H71 -4.880924314889E-01 -7.127921155564E-03  4.238219257990E-01
H72  4.880924314889E-01  7.127921155564E-03 -4.238219257990E-01
H73 -1.781324212247E-01 -9.302125970094E-02  4.857518167681E-01
H74  1.781324212247E-01  9.302125970094E-02 -4.857518167681E-01
H75  6.272785780396E-02 -2.486867416525E-01  3.996750130717E-01
H76 -6.272785780396E-02  2.486867416525E-01 -3.996750130717E-01
H77 -4.624402840992E-01 -2.204611349729E-01  1.416170069059E-01
H78  4.624402840992E-01  2.204611349729E-01 -1.416170069059E-01
H79  1.623187706873E-01 -3.820153864177E-01  2.643286286371E-01
H80 -1.623187706873E-01  3.820153864177E-01 -2.643286286371E-01
H81 -3.627844463820E-01 -3.533969756288E-01  6.294075295187E-03
H82  3.627844463820E-01  3.533969756288E-01 -6.294075295187E-03
H83  2.628134657589E-01  4.858717250351E-01  1.289604636993E-01
H84 -2.628134657589E-01 -4.858717250351E-01 -1.289604636993E-01


#===END

data_OPT_STEP_30

_symmetry_space_group_name_H-M 'P 1'
_cell_length_a      6.59984537
_cell_length_b      8.22556578
_cell_length_c     16.76289447
_cell_angle_alpha  100.740678
_cell_angle_beta   91.084760
_cell_angle_gamma   95.358657

loop_
_atom_site_label
_atom_site_fract_x
_atom_site_fract_y
_atom_site_fract_z
C1  6.166492219363E-02  2.376340433544E-01  3.264455896028E-01
C2 -6.166492219363E-02 -2.376340433544E-01 -3.264455896028E-01
C3  1.089127220604E-01  3.467270451728E-01  3.971930305739E-01
C4 -1.089127220604E-01 -3.467270451728E-01 -3.971930305739E-01
C5  3.030627014581E-01  4.424445968562E-01  4.100944457183E-01
C6 -3.030627014581E-01 -4.424445968562E-01 -4.100944457183E-01
C7  4.443622751102E-01  4.257799560880E-01  3.518887475875E-01
C8 -4.443622751102E-01 -4.257799560880E-01 -3.518887475875E-01
C9  4.027614476362E-01  3.115847743196E-01  2.762864433836E-01
C10 -4.027614476362E-01 -3.115847743196E-01 -2.762864433836E-01
C11  2.049578141154E-01  2.155257485675E-01  2.629862575447E-01
C12 -2.049578141154E-01 -2.155257485675E-01 -2.629862575447E-01
C13  1.601445933624E-01  1.063845744787E-01  1.901954449012E-01
C14 -1.601445933624E-01 -1.063845744787E-01 -1.901954449012E-01
C15  3.025888066866E-01  8.428811553166E-02  1.280642021489E-01
C16 -3.025888066866E-01 -8.428811553166E-02 -1.280642021489E-01
C17 -4.989528764706E-01  1.798603228060E-01  1.415558725567E-01
C18  4.989528764706E-01 -1.798603228060E-01 -1.415558725567E-01
C19 -4.562121120462E-01  2.917833831452E-01  2.161604539594E-01
C20  4.562121120462E-01 -2.917833831452E-01 -2.161604539594E-01
C21  2.588161081067E-01 -2.651648294243E-02  5.474432134462E-02
C22 -2.588161081067E-01  2.651648294243E-02 -5.474432134462E-02
C23  4.006883632957E-01 -4.781980028413E-02 -6.751740575823E-03
C24 -4.006883632957E-01  4.781980028413E-02  6.751740575823E-03
C25 -3.572040042365E-01  1.587537497077E-01  8.076353841739E-02
C26  3.572040042365E-01 -1.587537497077E-01 -8.076353841739E-02
C27 -4.242884919557E-01 -1.197831821808E-01  3.037759034771E-01
C28  4.242884919557E-01  1.197831821808E-01 -3.037759034771E-01
C29 -3.841152177352E-01 -7.856936599154E-02  3.852459374959E-01
C30  3.841152177352E-01  7.856936599154E-02 -3.852459374959E-01
C31 -2.057399542831E-01 -1.268766333300E-01  4.207612367682E-01
C32  2.057399542831E-01  1.268766333300E-01 -4.207612367682E-01
C33 -7.137011424800E-02 -2.124268003135E-01  3.733116477054E-01
C34  7.137011424800E-02  2.124268003135E-01 -3.733116477054E-01
C35 -1.058736897384E-01 -2.584415821524E-01  2.869850886592E-01
C36  1.058736897384E-01  2.584415821524E-01 -2.869850886592E-01
C37 -2.885541148061E-01 -2.115713009754E-01  2.511999882783E-01
C38  2.885541148061E-01  2.115713009754E-01 -2.511999882783E-01
C39 -3.260241212748E-01 -2.553582899361E-01  1.681810259176E-01
C40  3.260241212748E-01  2.553582899361E-01 -1.681810259176E-01
C41 -1.905010803198E-01 -3.445554601469E-01  1.166868958817E-01
C42  1.905010803198E-01  3.445554601469E-01 -1.166868958817E-01
C43 -7.424095612137E-03 -3.912930576964E-01  1.525530864452E-01
C44  7.424095612137E-03  3.912930576964E-01 -1.525530864452E-01
C45  2.801863409623E-02 -3.461355124305E-01  2.375984197973E-01
C46 -2.801863409623E-02  3.461355124305E-01 -2.375984197973E-01
C47 -2.270131748929E-01 -3.886191848864E-01  3.289252716907E-02
C48  2.270131748929E-01  3.886191848864E-01 -3.289252716907E-02
C49 -9.156154036220E-02 -4.765514255302E-01 -1.795679441547E-02
C50  9.156154036220E-02  4.765514255302E-01  1.795679441547E-02
C51  1.272556198204E-01 -4.792874909446E-01  1.023522182236E-01
C52 -1.272556198204E-01  4.792874909446E-01 -1.023522182236E-01
H53 -8.583158803471E-02  1.656987131719E-01  3.166688906371E-01
H54  8.583158803471E-02 -1.656987131719E-01 -3.166688906371E-01
H55 -9.163271751623E-04  3.620753594687E-01  4.445535605533E-01
H56  9.163271751623E-04 -3.620753594687E-01 -4.445535605533E-01
H57  3.377065946849E-01 -4.710774386597E-01  4.669497249445E-01
H58 -3.377065946849E-01  4.710774386597E-01 -4.669497249445E-01
H59 -4.087975187330E-01  4.989278197957E-01  3.616044479567E-01
H60  4.087975187330E-01 -4.989278197957E-01 -3.616044479567E-01
H61  1.202740352759E-02  3.532704542874E-02  1.801578464751E-01
H62 -1.202740352759E-02 -3.532704542874E-02 -1.801578464751E-01
H63 -3.084466615203E-01  3.634923540322E-01  2.262063386079E-01
H64  3.084466615203E-01 -3.634923540322E-01 -2.262063386079E-01
H65  1.109346714620E-01 -9.801418814474E-02  4.476597524117E-02
H66 -1.109346714620E-01  9.801418814474E-02 -4.476597524117E-02
H67 -2.091941828955E-01  2.299896129432E-01  9.085438507858E-02
H68  2.091941828955E-01 -2.299896129432E-01 -9.085438507858E-02
H69  4.400445039721E-01 -8.368591865922E-02  2.770477861565E-01
H70 -4.400445039721E-01  8.368591865922E-02 -2.770477861565E-01
H71 -4.872318028386E-01 -7.370331024875E-03  4.238189326750E-01
H72  4.872318028386E-01  7.370331024875E-03 -4.238189326750E-01
H73 -1.769979462153E-01 -9.386679478497E-02  4.859269515029E-01
H74  1.769979462153E-01  9.386679478497E-02 -4.859269515029E-01
H75  6.495713576559E-02 -2.480918248349E-01  3.998063631198E-01
H76 -6.495713576559E-02  2.480918248349E-01 -3.998063631198E-01
H77 -4.625789216709E-01 -2.204845088872E-01  1.414665263027E-01
H78  4.625789216709E-01  2.204845088872E-01 -1.414665263027E-01
H79  1.644170540445E-01 -3.809319952077E-01  2.644429282871E-01
H80 -1.644170540445E-01  3.809319952077E-01 -2.644429282871E-01
H81 -3.637505523440E-01 -3.541071413140E-01  6.161916754705E-03
H82  3.637505523440E-01  3.541071413140E-01 -6.161916754705E-03
H83  2.638179222994E-01  4.860429357575E-01  1.291371001971E-01
H84 -2.638179222994E-01 -4.860429357575E-01 -1.291371001971E-01


#===END

data_OPT_STEP_31

_symmetry_space_group_name_H-M 'P 1'
_cell_length_a      6.59267556
_cell_length_b      8.24018827
_cell_length_c     16.77848116
_cell_angle_alpha  100.928471
_cell_angle_beta   91.225962
_cell_angle_gamma   95.400341

loop_
_atom_site_label
_atom_site_fract_x
_atom_site_fract_y
_atom_site_fract_z
C1  6.130373697950E-02  2.366442520031E-01  3.261388704696E-01
C2 -6.130373697950E-02 -2.366442520031E-01 -3.261388704696E-01
C3  1.084434297039E-01  3.460703471297E-01  3.969443233313E-01
C4 -1.084434297039E-01 -3.460703471297E-01 -3.969443233313E-01
C5  3.027524301300E-01  4.420793991459E-01  4.101114064088E-01
C6 -3.027524301300E-01 -4.420793991459E-01 -4.101114064088E-01
C7  4.443947747834E-01  4.252244126497E-01  3.521531644171E-01
C8 -4.443947747834E-01 -4.252244126497E-01 -3.521531644171E-01
C9  4.027864601924E-01  3.109532220078E-01  2.764509448626E-01
C10 -4.027864601924E-01 -3.109532220078E-01 -2.764509448626E-01
C11  2.048462666265E-01  2.145566343685E-01  2.628773770995E-01
C12 -2.048462666265E-01 -2.145566343685E-01 -2.628773770995E-01
C13  1.601363486545E-01  1.051450630469E-01  1.900172814311E-01
C14 -1.601363486545E-01 -1.051450630469E-01 -1.900172814311E-01
C15  3.026125373589E-01  8.349601312241E-02  1.279887579872E-01
C16 -3.026125373589E-01 -8.349601312241E-02 -1.279887579872E-01
C17 -4.987468519657E-01  1.793137463054E-01  1.417876901453E-01
C18  4.987468519657E-01 -1.793137463054E-01 -1.417876901453E-01
C19 -4.560436104249E-01  2.913467396592E-01  2.164876384433E-01
C20  4.560436104249E-01 -2.913467396592E-01 -2.164876384433E-01
C21  2.585487989175E-01 -2.679470025689E-02  5.441512552103E-02
C22 -2.585487989175E-01  2.679470025689E-02 -5.441512552103E-02
C23  4.005350857490E-01 -4.782354085755E-02 -6.936086307972E-03
C24 -4.005350857490E-01  4.782354085755E-02  6.936086307972E-03
C25 -3.568977777692E-01  1.585186034695E-01  8.113354948064E-02
C26  3.568977777692E-01 -1.585186034695E-01 -8.113354948064E-02
C27 -4.247981400606E-01 -1.211816690448E-01  3.037921330319E-01
C28  4.247981400606E-01  1.211816690448E-01 -3.037921330319E-01
C29 -3.844536532492E-01 -7.995294457407E-02  3.852868889568E-01
C30  3.844536532492E-01  7.995294457407E-02 -3.852868889568E-01
C31 -2.054112506296E-01 -1.274532934687E-01  4.208208292063E-01
C32  2.054112506296E-01  1.274532934687E-01 -4.208208292063E-01
C33 -7.140310397299E-02 -2.134715368430E-01  3.734447593557E-01
C34  7.140310397299E-02  2.134715368430E-01 -3.734447593557E-01
C35 -1.061166178418E-01 -2.595548483952E-01  2.870897705425E-01
C36  1.061166178418E-01  2.595548483952E-01 -2.870897705425E-01
C37 -2.888442989562E-01 -2.125595684985E-01  2.512256541690E-01
C38  2.888442989562E-01  2.125595684985E-01 -2.512256541690E-01
C39 -3.259025074994E-01 -2.554741905938E-01  1.681214385561E-01
C40  3.259025074994E-01  2.554741905938E-01 -1.681214385561E-01
C41 -1.902597125372E-01 -3.444159824479E-01  1.166443336289E-01
C42  1.902597125372E-01  3.444159824479E-01 -1.166443336289E-01
C43 -7.392826444815E-03 -3.916956113421E-01  1.526142068339E-01
C44  7.392826444815E-03  3.916956113421E-01 -1.526142068339E-01
C45  2.787855134046E-02 -3.470418631602E-01  2.377237306201E-01
C46 -2.787855134046E-02  3.470418631602E-01 -2.377237306201E-01
C47 -2.268055444070E-01 -3.882483851028E-01  3.280420929821E-02
C48  2.268055444070E-01  3.882483851028E-01 -3.280420929821E-02
C49 -9.162295698265E-02 -4.765190149950E-01 -1.799213116617E-02
C50  9.162295698265E-02  4.765190149950E-01  1.799213116617E-02
C51  1.274239094545E-01 -4.794318070897E-01  1.024260794091E-01
C52 -1.274239094545E-01  4.794318070897E-01 -1.024260794091E-01
H53 -8.648459568027E-02  1.648810537982E-01  3.160883521100E-01
H54  8.648459568027E-02 -1.648810537982E-01 -3.160883521100E-01
H55 -1.423934811148E-03  3.613087473976E-01  4.442196756148E-01
H56  1.423934811148E-03 -3.613087473976E-01 -4.442196756148E-01
H57  3.374152129566E-01 -4.713613826399E-01  4.670403660077E-01
H58 -3.374152129566E-01  4.713613826399E-01 -4.670403660077E-01
H59 -4.084627753512E-01  4.981811106726E-01  3.621461383196E-01
H60  4.084627753512E-01 -4.981811106726E-01 -3.621461383196E-01
H61  1.185882048323E-02  3.400343777738E-02  1.797589183700E-01
H62 -1.185882048323E-02 -3.400343777738E-02 -1.797589183700E-01
H63 -3.082770609315E-01  3.633988811759E-01  2.266897136449E-01
H64  3.082770609315E-01 -3.633988811759E-01 -2.266897136449E-01
H65  1.104906853078E-01 -9.833498625781E-02  4.420516905780E-02
H66 -1.104906853078E-01  9.833498625781E-02 -4.420516905780E-02
H67 -2.088216935646E-01  2.300008270216E-01  9.140650978408E-02
H68  2.088216935646E-01 -2.300008270216E-01 -9.140650978408E-02
H69  4.393560753708E-01 -8.523327046364E-02  2.770291195994E-01
H70 -4.393560753708E-01  8.523327046364E-02 -2.770291195994E-01
H71 -4.873600678533E-01 -8.449323657726E-03  4.238097975160E-01
H72  4.873600678533E-01  8.449323657726E-03 -4.238097975160E-01
H73 -1.762090935671E-01 -9.391036924654E-02  4.859759973617E-01
H74  1.762090935671E-01  9.391036924654E-02 -4.859759973617E-01
H75  6.519708691899E-02 -2.488826016189E-01  3.999574977046E-01
H76 -6.519708691899E-02  2.488826016189E-01 -3.999574977046E-01
H77 -4.623567467913E-01 -2.203292823268E-01  1.413413986173E-01
H78  4.623567467913E-01  2.203292823268E-01 -1.413413986173E-01
H79  1.642896932189E-01 -3.819494967418E-01  2.646232588117E-01
H80 -1.642896932189E-01  3.819494967418E-01 -2.646232588117E-01
H81 -3.634006877850E-01 -3.533952719908E-01  6.005765653949E-03
H82  3.634006877850E-01  3.533952719908E-01 -6.005765653949E-03
H83  2.637484452386E-01  4.854121564330E-01  1.292888931577E-01
H84 -2.637484452386E-01 -4.854121564330E-01 -1.292888931577E-01


#===END

data_OPT_STEP_32

_symmetry_space_group_name_H-M 'P 1'
_cell_length_a      6.61528258
_cell_length_b      8.22846282
_cell_length_c     16.76241468
_cell_angle_alpha  100.889998
_cell_angle_beta   91.295271
_cell_angle_gamma   95.426222

loop_
_atom_site_label
_atom_site_fract_x
_atom_site_fract_y
_atom_site_fract_z
C1  6.221983337954E-02  2.378721626775E-01  3.258424498914E-01
C2 -6.221983337954E-02 -2.378721626775E-01 -3.258424498914E-01
C3  1.093810619380E-01  3.470431145050E-01  3.967995558854E-01
C4 -1.093810619380E-01 -3.470431145050E-01 -3.967995558854E-01
C5  3.032846753792E-01  4.427576726734E-01  4.101709737459E-01
C6 -3.032846753792E-01 -4.427576726734E-01 -4.101709737459E-01
C7  4.444778246203E-01  4.259089537910E-01  3.522499345436E-01
C8 -4.444778246203E-01 -4.259089537910E-01 -3.522499345436E-01
C9  4.026169958732E-01  3.123011263906E-01  2.763055931143E-01
C10 -4.026169958732E-01 -3.123011263906E-01 -2.763055931143E-01
C11  2.052606094619E-01  2.158904745931E-01  2.625937504891E-01
C12 -2.052606094619E-01 -2.158904745931E-01 -2.625937504891E-01
C13  1.608560135777E-01  1.060582831103E-01  1.897325954766E-01
C14 -1.608560135777E-01 -1.060582831103E-01 -1.897325954766E-01
C15  3.028646301564E-01  8.438194940770E-02  1.277506647047E-01
C16 -3.028646301564E-01 -8.438194940770E-02 -1.277506647047E-01
C17 -4.992598767540E-01  1.805365411238E-01  1.416092872835E-01
C18  4.992598767540E-01 -1.805365411238E-01 -1.416092872835E-01
C19 -4.565513268084E-01  2.924606653469E-01  2.164329986288E-01
C20  4.565513268084E-01 -2.924606653469E-01 -2.164329986288E-01
C21  2.590379248472E-01 -2.623456525056E-02  5.416302778526E-02
C22 -2.590379248472E-01  2.623456525056E-02 -5.416302778526E-02
C23  4.009561189811E-01 -4.805964082848E-02 -6.946105621258E-03
C24 -4.009561189811E-01  4.805964082848E-02  6.946105621258E-03
C25 -3.579643583365E-01  1.598430027366E-01  8.096565052282E-02
C26  3.579643583365E-01 -1.598430027366E-01 -8.096565052282E-02
C27 -4.230367190046E-01 -1.199906758662E-01  3.035995026607E-01
C28  4.230367190046E-01  1.199906758662E-01 -3.035995026607E-01
C29 -3.831294472422E-01 -7.901748484519E-02  3.852090149015E-01
C30  3.831294472422E-01  7.901748484519E-02 -3.852090149015E-01
C31 -2.048457385699E-01 -1.265897551869E-01  4.209229161394E-01
C32  2.048457385699E-01  1.265897551869E-01 -4.209229161394E-01
C33 -7.105499421045E-02 -2.123254124506E-01  3.736075840920E-01
C34  7.105499421045E-02  2.123254124506E-01 -3.736075840920E-01
C35 -1.055751294985E-01 -2.585563303617E-01  2.871641397768E-01
C36  1.055751294985E-01  2.585563303617E-01 -2.871641397768E-01
C37 -2.875932108260E-01 -2.115521800817E-01  2.511148552506E-01
C38  2.875932108260E-01  2.115521800817E-01 -2.511148552506E-01
C39 -3.247130442871E-01 -2.549169541878E-01  1.679516143322E-01
C40  3.247130442871E-01  2.549169541878E-01 -1.679516143322E-01
C41 -1.896231878503E-01 -3.441080594540E-01  1.165600305107E-01
C42  1.896231878503E-01  3.441080594540E-01 -1.165600305107E-01
C43 -6.829819372170E-03 -3.905731276958E-01  1.526646128298E-01
C44  6.829819372170E-03  3.905731276958E-01 -1.526646128298E-01
C45  2.846265783175E-02 -3.454523871584E-01  2.378411648854E-01
C46 -2.846265783175E-02  3.454523871584E-01 -2.378411648854E-01
C47 -2.263231814002E-01 -3.884748265868E-01  3.265462555292E-02
C48  2.263231814002E-01  3.884748265868E-01 -3.265462555292E-02
C49 -9.162334085112E-02 -4.769446935514E-01 -1.806101872353E-02
C50  9.162334085112E-02  4.769446935514E-01  1.806101872353E-02
C51  1.277528084026E-01 -4.781782955595E-01  1.025455154009E-01
C52 -1.277528084026E-01  4.781782955595E-01 -1.025455154009E-01
H53 -8.489064146449E-02  1.655745307027E-01  3.158155699480E-01
H54  8.489064146449E-02 -1.655745307027E-01 -3.158155699480E-01
H55 -1.391599795940E-05  3.619664133143E-01  4.441016860088E-01
H56  1.391599795940E-05 -3.619664133143E-01 -4.441016860088E-01
H57  3.379670220977E-01 -4.708494583294E-01  4.672024427528E-01
H58 -3.379670220977E-01  4.708494583294E-01 -4.672024427528E-01
H59 -4.086737628341E-01  4.986690712958E-01  3.623911746650E-01
H60  4.086737628341E-01 -4.986690712958E-01 -3.623911746650E-01
H61  1.318111458166E-02  3.452235761809E-02  1.794630668717E-01
H62 -1.318111458166E-02 -3.452235761809E-02 -1.794630668717E-01
H63 -3.089723202650E-01  3.641587425114E-01  2.268233331181E-01
H64  3.089723202650E-01 -3.641587425114E-01 -2.268233331181E-01
H65  1.113583602496E-01 -9.773757380785E-02  4.384072335025E-02
H66 -1.113583602496E-01  9.773757380785E-02 -4.384072335025E-02
H67 -2.105208644048E-01  2.317804703689E-01  9.122635610815E-02
H68  2.105208644048E-01 -2.317804703689E-01 -9.122635610815E-02
H69  4.417009916982E-01 -8.385597728380E-02  2.767125838107E-01
H70 -4.417009916982E-01  8.385597728380E-02 -2.767125838107E-01
H71 -4.860412522494E-01 -7.924300984729E-03  4.237116242859E-01
H72  4.860412522494E-01  7.924300984729E-03 -4.237116242859E-01
H73 -1.760792630650E-01 -9.342125285280E-02  4.861636197347E-01
H74  1.760792630650E-01  9.342125285280E-02 -4.861636197347E-01
H75  6.526201928620E-02 -2.474608655985E-01  4.002190355266E-01
H76 -6.526201928620E-02  2.474608655985E-01 -4.002190355266E-01
H77 -4.608031684313E-01 -2.199127141598E-01  1.410712428566E-01
H78  4.608031684313E-01  2.199127141598E-01 -1.410712428566E-01
H79  1.647353070408E-01 -3.798737257994E-01  2.648342435685E-01
H80 -1.647353070408E-01  3.798737257994E-01 -2.648342435685E-01
H81 -3.625797700604E-01 -3.537854542092E-01  5.754454913844E-03
H82  3.625797700604E-01  3.537854542092E-01 -5.754454913844E-03
H83  2.639620832986E-01  4.871589508941E-01  1.294958311272E-01
H84 -2.639620832986E-01 -4.871589508941E-01 -1.294958311272E-01


#===END

data_OPT_STEP_33

_symmetry_space_group_name_H-M 'P 1'
_cell_length_a      6.59691218
_cell_length_b      8.23931341
_cell_length_c     16.77379793
_cell_angle_alpha  100.916226
_cell_angle_beta   91.252475
_cell_angle_gamma   95.400773

loop_
_atom_site_label
_atom_site_fract_x
_atom_site_fract_y
_atom_site_fract_z
C1  6.142719474722E-02  2.369788585033E-01  3.260381390496E-01
C2 -6.142719474722E-02 -2.369788585033E-01 -3.260381390496E-01
C3  1.085892607356E-01  3.462991807941E-01  3.968858589886E-01
C4 -1.085892607356E-01 -3.462991807941E-01 -3.968858589886E-01
C5  3.028713944688E-01  4.421404892010E-01  4.101236116316E-01
C6 -3.028713944688E-01 -4.421404892010E-01 -4.101236116316E-01
C7  4.444578298108E-01  4.252295321688E-01  3.521911471359E-01
C8 -4.444578298108E-01 -4.252295321688E-01 -3.521911471359E-01
C9  4.027127580354E-01  3.112757590726E-01  2.763995748622E-01
C10 -4.027127580354E-01 -3.112757590726E-01 -2.763995748622E-01
C11  2.048689617908E-01  2.149270534010E-01  2.627815270799E-01
C12 -2.048689617908E-01 -2.149270534010E-01 -2.627815270799E-01
C13  1.602471891289E-01  1.053922898730E-01  1.899295860448E-01
C14 -1.602471891289E-01 -1.053922898730E-01 -1.899295860448E-01
C15  3.026167496578E-01  8.376089873193E-02  1.279102849452E-01
C16 -3.026167496578E-01 -8.376089873193E-02 -1.279102849452E-01
C17 -4.989066681410E-01  1.796536796947E-01  1.417236308203E-01
C18  4.989066681410E-01 -1.796536796947E-01 -1.417236308203E-01
C19 -4.561472925217E-01  2.915528907669E-01  2.164756808898E-01
C20  4.561472925217E-01 -2.915528907669E-01 -2.164756808898E-01
C21  2.585882013481E-01 -2.656359106149E-02  5.432719817907E-02
C22 -2.585882013481E-01  2.656359106149E-02 -5.432719817907E-02
C23  4.006313772681E-01 -4.788571015736E-02 -6.936013077183E-03
C24 -4.006313772681E-01  4.788571015736E-02  6.936013077183E-03
C25 -3.572027519322E-01  1.589381966013E-01  8.106172804034E-02
C26  3.572027519322E-01 -1.589381966013E-01 -8.106172804034E-02
C27 -4.242651393139E-01 -1.207884584703E-01  3.037329619448E-01
C28  4.242651393139E-01  1.207884584703E-01 -3.037329619448E-01
C29 -3.840020776987E-01 -7.964632083799E-02  3.852603253942E-01
C30  3.840020776987E-01  7.964632083799E-02 -3.852603253942E-01
C31 -2.051580372052E-01 -1.272450621765E-01  4.208499369374E-01
C32  2.051580372052E-01  1.272450621765E-01 -4.208499369374E-01
C33 -7.118902831246E-02 -2.131793631186E-01  3.734918350659E-01
C34  7.118902831246E-02  2.131793631186E-01 -3.734918350659E-01
C35 -1.059225404918E-01 -2.593467391686E-01  2.871147904030E-01
C36  1.059225404918E-01  2.593467391686E-01 -2.871147904030E-01
C37 -2.884891677034E-01 -2.122985019277E-01  2.511953186265E-01
C38  2.884891677034E-01  2.122985019277E-01 -2.511953186265E-01
C39 -3.256504716083E-01 -2.553884555656E-01  1.680797625953E-01
C40  3.256504716083E-01  2.553884555656E-01 -1.680797625953E-01
C41 -1.901549180251E-01 -3.444199649661E-01  1.166275118204E-01
C42  1.901549180251E-01  3.444199649661E-01 -1.166275118204E-01
C43 -7.176316098895E-03 -3.913965391143E-01  1.526297237112E-01
C44  7.176316098895E-03  3.913965391143E-01 -1.526297237112E-01
C45  2.816194507427E-02 -3.465888343634E-01  2.377562293052E-01
C46 -2.816194507427E-02  3.465888343634E-01 -2.377562293052E-01
C47 -2.267730894908E-01 -3.883634557596E-01  3.276672404196E-02
C48  2.267730894908E-01  3.883634557596E-01 -3.276672404196E-02
C49 -9.168275032495E-02 -4.766628340558E-01 -1.800957995170E-02
C50  9.168275032495E-02  4.766628340558E-01  1.800957995170E-02
C51  1.276256536595E-01 -4.790589847737E-01  1.024581717174E-01
C52 -1.276256536595E-01  4.790589847737E-01 -1.024581717174E-01
H53 -8.614010922118E-02  1.649579679449E-01  3.160213644618E-01
H54  8.614010922118E-02 -1.649579679449E-01 -3.160213644618E-01
H55 -1.163906562475E-03  3.614399880635E-01  4.441698182493E-01
H56  1.163906562475E-03 -3.614399880635E-01 -4.441698182493E-01
H57  3.375088168835E-01 -4.713017874675E-01  4.670670274698E-01
H58 -3.375088168835E-01  4.713017874675E-01 -4.670670274698E-01
H59 -4.084328894059E-01  4.980836281539E-01  3.622337458320E-01
H60  4.084328894059E-01 -4.980836281539E-01 -3.622337458320E-01
H61  1.213598620589E-02  3.409387412087E-02  1.796812851002E-01
H62 -1.213598620589E-02 -3.409387412087E-02 -1.796812851002E-01
H63 -3.083605418359E-01  3.634149860759E-01  2.267495591680E-01
H64  3.083605418359E-01 -3.634149860759E-01 -2.267495591680E-01
H65  1.105700326381E-01 -9.801591926301E-02  4.406964678060E-02
H66 -1.105700326381E-01  9.801591926301E-02 -4.406964678060E-02
H67 -2.092767386361E-01  2.305446289097E-01  9.132883368265E-02
H68  2.092767386361E-01 -2.305446289097E-01 -9.132883368265E-02
H69  4.400493478474E-01 -8.472133096878E-02  2.769310410341E-01
H70 -4.400493478474E-01  8.472133096878E-02 -2.769310410341E-01
H71 -4.869399200769E-01 -8.281473663288E-03  4.237807484135E-01
H72  4.869399200769E-01  8.281473663288E-03 -4.237807484135E-01
H73 -1.761111545147E-01 -9.390184058934E-02  4.860363158254E-01
H74  1.761111545147E-01  9.390184058934E-02 -4.860363158254E-01
H75  6.540166149798E-02 -2.484764111220E-01  4.000321520354E-01
H76 -6.540166149798E-02  2.484764111220E-01 -4.000321520354E-01
H77 -4.620663714763E-01 -2.203049277169E-01  1.412738240418E-01
H78  4.620663714763E-01  2.203049277169E-01 -1.412738240418E-01
H79  1.645837788556E-01 -3.813605211990E-01  2.646830970167E-01
H80 -1.645837788556E-01  3.813605211990E-01 -2.646830970167E-01
H81 -3.633191577071E-01 -3.535489775058E-01  5.939739618167E-03
H82  3.633191577071E-01  3.535489775058E-01 -5.939739618167E-03
H83  2.639917697460E-01  4.859553004820E-01  1.293434581146E-01
H84 -2.639917697460E-01 -4.859553004820E-01 -1.293434581146E-01


#===END

data_OPT_STEP_34

_symmetry_space_group_name_H-M 'P 1'
_cell_length_a      6.60100358
_cell_length_b      8.23857427
_cell_length_c     16.77257136
_cell_angle_alpha  100.910119
_cell_angle_beta   91.284765
_cell_angle_gamma   95.382083

loop_
_atom_site_label
_atom_site_fract_x
_atom_site_fract_y
_atom_site_fract_z
C1  6.186003652263E-02  2.372073378506E-01  3.259855807431E-01
C2 -6.186003652263E-02 -2.372073378506E-01 -3.259855807431E-01
C3  1.090599735928E-01  3.464530566221E-01  3.968531166082E-01
C4 -1.090599735928E-01 -3.464530566221E-01 -3.968531166082E-01
C5  3.032202772074E-01  4.422541587696E-01  4.101107614639E-01
C6 -3.032202772074E-01 -4.422541587696E-01 -4.101107614639E-01
C7  4.445858924926E-01  4.254961063531E-01  3.521494189095E-01
C8 -4.445858924926E-01 -4.254961063531E-01 -3.521494189095E-01
C9  4.028817371968E-01  3.114560698942E-01  2.763734636309E-01
C10 -4.028817371968E-01 -3.114560698942E-01 -2.763734636309E-01
C11  2.052611745448E-01  2.149655007283E-01  2.627795646340E-01
C12 -2.052611745448E-01 -2.149655007283E-01 -2.627795646340E-01
C13  1.607518061445E-01  1.051932505842E-01  1.899755329987E-01
C14 -1.607518061445E-01 -1.051932505842E-01 -1.899755329987E-01
C15  3.029357440933E-01  8.361676454677E-02  1.279457106695E-01
C16 -3.029357440933E-01 -8.361676454677E-02 -1.279457106695E-01
C17 -4.987911498884E-01  1.796205342407E-01  1.417406747905E-01
C18  4.987911498884E-01 -1.796205342407E-01 -1.417406747905E-01
C19 -4.560855306732E-01  2.916570518807E-01  2.164688680691E-01
C20  4.560855306732E-01 -2.916570518807E-01 -2.164688680691E-01
C21  2.589014587107E-01 -2.674338050013E-02  5.436342608537E-02
C22 -2.589014587107E-01  2.674338050013E-02 -5.436342608537E-02
C23  4.007367725571E-01 -4.794896906088E-02 -6.926126630635E-03
C24 -4.007367725571E-01  4.794896906088E-02  6.926126630635E-03
C25 -3.571834713109E-01  1.587996237876E-01  8.110739619642E-02
C26  3.571834713109E-01 -1.587996237876E-01 -8.110739619642E-02
C27 -4.242308503084E-01 -1.210602270409E-01  3.036890671409E-01
C28  4.242308503084E-01  1.210602270409E-01 -3.036890671409E-01
C29 -3.838068163292E-01 -7.971940823553E-02  3.852163942446E-01
C30  3.838068163292E-01  7.971940823553E-02 -3.852163942446E-01
C31 -2.048196384483E-01 -1.269764296957E-01  4.208109085499E-01
C32  2.048196384483E-01  1.269764296957E-01 -4.208109085499E-01
C33 -7.102702261956E-02 -2.130249272251E-01  3.734785641223E-01
C34  7.102702261956E-02  2.130249272251E-01 -3.734785641223E-01
C35 -1.057593279120E-01 -2.591828210809E-01  2.870900672661E-01
C36  1.057593279120E-01  2.591828210809E-01 -2.870900672661E-01
C37 -2.884561003560E-01 -2.124548891505E-01  2.511581637079E-01
C38  2.884561003560E-01  2.124548891505E-01 -2.511581637079E-01
C39 -3.257385311448E-01 -2.557228062647E-01  1.680472118055E-01
C40  3.257385311448E-01  2.557228062647E-01 -1.680472118055E-01
C41 -1.903955592357E-01 -3.448822189434E-01  1.166248172104E-01
C42  1.903955592357E-01  3.448822189434E-01 -1.166248172104E-01
C43 -7.336185549637E-03 -3.916394789198E-01  1.526488412050E-01
C44  7.336185549637E-03  3.916394789198E-01 -1.526488412050E-01
C45  2.821128989329E-02 -3.464902776174E-01  2.377614734884E-01
C46 -2.821128989329E-02  3.464902776174E-01 -2.377614734884E-01
C47 -2.267592724770E-01 -3.884542846800E-01  3.272968790941E-02
C48  2.267592724770E-01  3.884542846800E-01 -3.272968790941E-02
C49 -9.156721685788E-02 -4.765322919257E-01 -1.803619784567E-02
C50  9.156721685788E-02  4.765322919257E-01  1.803619784567E-02
C51  1.274500094350E-01 -4.792605583311E-01  1.025009503818E-01
C52 -1.274500094350E-01  4.792605583311E-01 -1.025009503818E-01
H53 -8.536531608509E-02  1.647299244865E-01  3.160582304855E-01
H54  8.536531608509E-02 -1.647299244865E-01 -3.160582304855E-01
H55 -5.501121378496E-04  3.615447657817E-01  4.441424042780E-01
H56  5.501121378496E-04 -3.615447657817E-01 -4.441424042780E-01
H57  3.377676926437E-01 -4.710905170068E-01  4.670403838166E-01
H58 -3.377676926437E-01  4.710905170068E-01 -4.670403838166E-01
H59 -4.085990267532E-01  4.987018651921E-01  3.621271285791E-01
H60  4.085990267532E-01 -4.987018651921E-01 -3.621271285791E-01
H61  1.293197864255E-02  3.352263547775E-02  1.797977159500E-01
H62 -1.293197864255E-02 -3.352263547775E-02 -1.797977159500E-01
H63 -3.083991522019E-01  3.635188080351E-01  2.267591680538E-01
H64  3.083991522019E-01 -3.635188080351E-01 -2.267591680538E-01
H65  1.108817721640E-01 -9.800192080877E-02  4.404224520044E-02
H66 -1.108817721640E-01  9.800192080877E-02 -4.404224520044E-02
H67 -2.091385061096E-01  2.299990282633E-01  9.149138918651E-02
H68  2.091385061096E-01 -2.299990282633E-01 -9.149138918651E-02
H69  4.400994269103E-01 -8.504044094796E-02  2.768724601086E-01
H70 -4.400994269103E-01  8.504044094796E-02 -2.768724601086E-01
H71 -4.868857810847E-01 -8.660084826237E-03  4.237520308806E-01
H72  4.868857810847E-01  8.660084826237E-03 -4.237520308806E-01
H73 -1.756577711315E-01 -9.347261673169E-02  4.859940649523E-01
H74  1.756577711315E-01  9.347261673169E-02 -4.859940649523E-01
H75  6.554297522303E-02 -2.482903077101E-01  4.000310201381E-01
H76 -6.554297522303E-02  2.482903077101E-01 -4.000310201381E-01
H77 -4.621955323712E-01 -2.207863349722E-01  1.412280522115E-01
H78  4.621955323712E-01  2.207863349722E-01 -1.412280522115E-01
H79  1.644114829272E-01 -3.815054496906E-01  2.647344575366E-01
H80 -1.644114829272E-01  3.815054496906E-01 -2.647344575366E-01
H81 -3.632979794507E-01 -3.537125934989E-01  5.880104720602E-03
H82  3.632979794507E-01  3.537125934989E-01 -5.880104720602E-03
H83  2.639951473664E-01  4.860944862680E-01  1.293922545944E-01
H84 -2.639951473664E-01 -4.860944862680E-01 -1.293922545944E-01


#===END

data_OPT_STEP_35

_symmetry_space_group_name_H-M 'P 1'
_cell_length_a      6.60119163
_cell_length_b      8.23795359
_cell_length_c     16.77273687
_cell_angle_alpha  100.905610
_cell_angle_beta   91.292973
_cell_angle_gamma   95.375608

loop_
_atom_site_label
_atom_site_fract_x
_atom_site_fract_y
_atom_site_fract_z
C1  6.200398835227E-02  2.371759144487E-01  3.259968816973E-01
C2 -6.200398835227E-02 -2.371759144487E-01 -3.259968816973E-01
C3  1.092230723288E-01  3.464264621155E-01  3.968596065810E-01
C4 -1.092230723288E-01 -3.464264621155E-01 -3.968596065810E-01
C5  3.033250516160E-01  4.423151218853E-01  4.100946389070E-01
C6 -3.033250516160E-01 -4.423151218853E-01 -4.100946389070E-01
C7  4.446840969672E-01  4.255200030767E-01  3.521415575803E-01
C8 -4.446840969672E-01 -4.255200030767E-01 -3.521415575803E-01
C9  4.029575604283E-01  3.114813960774E-01  2.763669101679E-01
C10 -4.029575604283E-01 -3.114813960774E-01 -2.763669101679E-01
C11  2.053511228521E-01  2.149802055918E-01  2.627792935609E-01
C12 -2.053511228521E-01 -2.149802055918E-01 -2.627792935609E-01
C13  1.608231350495E-01  1.052077493232E-01  1.899787409420E-01
C14 -1.608231350495E-01 -1.052077493232E-01 -1.899787409420E-01
C15  3.029722893018E-01  8.364251070382E-02  1.279435035095E-01
C16 -3.029722893018E-01 -8.364251070382E-02 -1.279435035095E-01
C17 -4.987615320830E-01  1.796472856884E-01  1.417335523893E-01
C18  4.987615320830E-01 -1.796472856884E-01 -1.417335523893E-01
C19 -4.560323361744E-01  2.916813667438E-01  2.164614886801E-01
C20  4.560323361744E-01 -2.916813667438E-01 -2.164614886801E-01
C21  2.589215748336E-01 -2.673285112023E-02  5.436531215787E-02
C22 -2.589215748336E-01  2.673285112023E-02 -5.436531215787E-02
C23  4.007421040554E-01 -4.795459250734E-02 -6.922479425409E-03
C24 -4.007421040554E-01  4.795459250734E-02  6.922479425409E-03
C25 -3.572292827132E-01  1.589228006535E-01  8.107451312574E-02
C26  3.572292827132E-01 -1.589228006535E-01 -8.107451312574E-02
C27 -4.241229222355E-01 -1.210102820895E-01  3.036778077250E-01
C28  4.241229222355E-01  1.210102820895E-01 -3.036778077250E-01
C29 -3.836991733392E-01 -7.973833363649E-02  3.852060858213E-01
C30  3.836991733392E-01  7.973833363649E-02 -3.852060858213E-01
C31 -2.047554456692E-01 -1.270972762253E-01  4.208017067605E-01
C32  2.047554456692E-01  1.270972762253E-01 -4.208017067605E-01
C33 -7.090399252089E-02 -2.130375375972E-01  3.734585382391E-01
C34  7.090399252089E-02  2.130375375972E-01 -3.734585382391E-01
C35 -1.056535957041E-01 -2.591437605073E-01  2.870725374498E-01
C36  1.056535957041E-01  2.591437605073E-01 -2.870725374498E-01
C37 -2.883614615285E-01 -2.124041402404E-01  2.511445272055E-01
C38  2.883614615285E-01  2.124041402404E-01 -2.511445272055E-01
C39 -3.256966301452E-01 -2.557132899131E-01  1.680379559996E-01
C40  3.256966301452E-01  2.557132899131E-01 -1.680379559996E-01
C41 -1.903425265171E-01 -3.448439322558E-01  1.166153345175E-01
C42  1.903425265171E-01  3.448439322558E-01 -1.166153345175E-01
C43 -7.273969483340E-03 -3.915914139926E-01  1.526361923945E-01
C44  7.273969483340E-03  3.915914139926E-01 -1.526361923945E-01
C45  2.828417126068E-02 -3.464721934658E-01  2.377461529883E-01
C46 -2.828417126068E-02  3.464721934658E-01 -2.377461529883E-01
C47 -2.267404395427E-01 -3.884511222437E-01  3.272647479052E-02
C48  2.267404395427E-01  3.884511222437E-01 -3.272647479052E-02
C49 -9.158023509305E-02 -4.765580985735E-01 -1.803342940077E-02
C50  9.158023509305E-02  4.765580985735E-01  1.803342940077E-02
C51  1.274854787038E-01 -4.792192732549E-01  1.024922867707E-01
C52 -1.274854787038E-01  4.792192732549E-01 -1.024922867707E-01
H53 -8.521740989149E-02  1.647165100286E-01  3.160634869256E-01
H54  8.521740989149E-02 -1.647165100286E-01 -3.160634869256E-01
H55 -3.540893909213E-04  3.615162803399E-01  4.441499548463E-01
H56  3.540893909213E-04 -3.615162803399E-01 -4.441499548463E-01
H57  3.378307207237E-01 -4.709740726538E-01  4.670133223384E-01
H58 -3.378307207237E-01  4.709740726538E-01 -4.670133223384E-01
H59 -4.084876919566E-01  4.986780371977E-01  3.621331955125E-01
H60  4.084876919566E-01 -4.986780371977E-01 -3.621331955125E-01
H61  1.301913749937E-02  3.352571869020E-02  1.798011285318E-01
H62 -1.301913749937E-02 -3.352571869020E-02 -1.798011285318E-01
H63 -3.083534999275E-01  3.635385363381E-01  2.267563083576E-01
H64  3.083534999275E-01 -3.635385363381E-01 -2.267563083576E-01
H65  1.109138147983E-01 -9.799879839313E-02  4.404249616361E-02
H66 -1.109138147983E-01  9.799879839313E-02 -4.404249616361E-02
H67 -2.092401648847E-01  2.302081118249E-01  9.144095803067E-02
H68  2.092401648847E-01 -2.302081118249E-01 -9.144095803067E-02
H69  4.401663329816E-01 -8.502552887605E-02  2.768661618702E-01
H70 -4.401663329816E-01  8.502552887605E-02 -2.768661618702E-01
H71 -4.867994876872E-01 -8.749353025795E-03  4.237540381539E-01
H72  4.867994876872E-01  8.749353025795E-03 -4.237540381539E-01
H73 -1.756077674519E-01 -9.364976493297E-02  4.859871289061E-01
H74  1.756077674519E-01  9.364976493297E-02 -4.859871289061E-01
H75  6.569478651155E-02 -2.483043145492E-01  4.000009386585E-01
H76 -6.569478651155E-02  2.483043145492E-01 -4.000009386585E-01
H77 -4.622195978272E-01 -2.208598357893E-01  1.412221848390E-01
H78  4.622195978272E-01  2.208598357893E-01 -1.412221848390E-01
H79  1.644645217942E-01 -3.815305354408E-01  2.647235234100E-01
H80 -1.644645217942E-01  3.815305354408E-01 -2.647235234100E-01
H81 -3.633017876269E-01 -3.537356025331E-01  5.874424368391E-03
H82  3.633017876269E-01  3.537356025331E-01 -5.874424368391E-03
H83  2.640535285893E-01  4.861657523563E-01  1.293854453460E-01
H84 -2.640535285893E-01 -4.861657523563E-01 -1.293854453460E-01


#===END

data_OPT_STEP_36

_symmetry_space_group_name_H-M 'P 1'
_cell_length_a      6.60219647
_cell_length_b      8.23694035
_cell_length_c     16.77291086
_cell_angle_alpha  100.899440
_cell_angle_beta   91.308479
_cell_angle_gamma   95.373834

loop_
_atom_site_label
_atom_site_fract_x
_atom_site_fract_y
_atom_site_fract_z
C1  6.228756094031E-02  2.370531779703E-01  3.260115566273E-01
C2 -6.228756094031E-02 -2.370531779703E-01 -3.260115566273E-01
C3  1.094760470136E-01  3.464299080833E-01  3.968429025647E-01
C4 -1.094760470136E-01 -3.464299080833E-01 -3.968429025647E-01
C5  3.035151642595E-01  4.423827666607E-01  4.100703063445E-01
C6 -3.035151642595E-01 -4.423827666607E-01 -4.100703063445E-01
C7  4.448146536693E-01  4.256151019352E-01  3.521179822129E-01
C8 -4.448146536693E-01 -4.256151019352E-01 -3.521179822129E-01
C9  4.030869939205E-01  3.115124622226E-01  2.763565383813E-01
C10 -4.030869939205E-01 -3.115124622226E-01 -2.763565383813E-01
C11  2.055024168463E-01  2.150049106262E-01  2.627646781050E-01
C12 -2.055024168463E-01 -2.150049106262E-01 -2.627646781050E-01
C13  1.609384124482E-01  1.052474713644E-01  1.899628346535E-01
C14 -1.609384124482E-01 -1.052474713644E-01 -1.899628346535E-01
C15  3.030182665480E-01  8.371804653096E-02  1.279217864410E-01
C16 -3.030182665480E-01 -8.371804653096E-02 -1.279217864410E-01
C17 -4.987388613293E-01  1.797395059835E-01  1.417125199604E-01
C18  4.987388613293E-01 -1.797395059835E-01 -1.417125199604E-01
C19 -4.559710534149E-01  2.917633576641E-01  2.164451077269E-01
C20  4.559710534149E-01 -2.917633576641E-01 -2.164451077269E-01
C21  2.589605678789E-01 -2.671699076553E-02  5.435455111874E-02
C22 -2.589605678789E-01  2.671699076553E-02 -5.435455111874E-02
C23  4.007499402222E-01 -4.795941721616E-02 -6.923978370228E-03
C24 -4.007499402222E-01  4.795941721616E-02  6.923978370228E-03
C25 -3.572377437680E-01  1.589976594121E-01  8.106315477512E-02
C26  3.572377437680E-01 -1.589976594121E-01 -8.106315477512E-02
C27 -4.238669127585E-01 -1.209979867830E-01  3.036651729196E-01
C28  4.238669127585E-01  1.209979867830E-01 -3.036651729196E-01
C29 -3.834940994314E-01 -7.991906683070E-02  3.851993179588E-01
C30  3.834940994314E-01  7.991906683070E-02 -3.851993179588E-01
C31 -2.045968594335E-01 -1.273740242221E-01  4.207951187139E-01
C32  2.045968594335E-01  1.273740242221E-01 -4.207951187139E-01
C33 -7.071081063376E-02 -2.131913137985E-01  3.734381962268E-01
C34  7.071081063376E-02  2.131913137985E-01 -3.734381962268E-01
C35 -1.055775800883E-01 -2.593204155110E-01  2.870636795662E-01
C36  1.055775800883E-01  2.593204155110E-01 -2.870636795662E-01
C37 -2.881712943780E-01 -2.124074802906E-01  2.511302007078E-01
C38  2.881712943780E-01  2.124074802906E-01 -2.511302007078E-01
C39 -3.255031748600E-01 -2.556434140719E-01  1.680191880941E-01
C40  3.255031748600E-01  2.556434140719E-01 -1.680191880941E-01
C41 -1.902273464896E-01 -3.448214434664E-01  1.166025914692E-01
C42  1.902273464896E-01  3.448214434664E-01 -1.166025914692E-01
C43 -7.144156337251E-03 -3.915059485104E-01  1.526166967338E-01
C44  7.144156337251E-03  3.915059485104E-01 -1.526166967338E-01
C45  2.846436748400E-02 -3.464025825719E-01  2.377217327107E-01
C46 -2.846436748400E-02  3.464025825719E-01 -2.377217327107E-01
C47 -2.267420192265E-01 -3.885731827056E-01  3.272839006188E-02
C48  2.267420192265E-01  3.885731827056E-01 -3.272839006188E-02
C49 -9.161634259084E-02 -4.766495192521E-01 -1.802621769572E-02
C50  9.161634259084E-02  4.766495192521E-01  1.802621769572E-02
C51  1.275212418819E-01 -4.791618487928E-01  1.024805924131E-01
C52 -1.275212418819E-01  4.791618487928E-01 -1.024805924131E-01
H53 -8.488911007151E-02  1.645640931098E-01  3.160729361753E-01
H54  8.488911007151E-02 -1.645640931098E-01 -3.160729361753E-01
H55 -5.918418942234E-06  3.614748695257E-01  4.441439955889E-01
H56  5.918418942241E-06 -3.614748695257E-01 -4.441439955889E-01
H57  3.379321179264E-01 -4.708193477975E-01  4.669767130591E-01
H58 -3.379321179264E-01  4.708193477975E-01 -4.669767130591E-01
H59 -4.083967932165E-01  4.988002923756E-01  3.621169247028E-01
H60  4.083967932165E-01 -4.988002923756E-01 -3.621169247028E-01
H61  1.314346649582E-02  3.359347738101E-02  1.797648931631E-01
H62 -1.314346649582E-02 -3.359347738101E-02 -1.797648931631E-01
H63 -3.083266199268E-01  3.636410906268E-01  2.267504338179E-01
H64  3.083266199268E-01 -3.636410906268E-01 -2.267504338179E-01
H65  1.110060310150E-01 -9.805268964300E-02  4.403227238799E-02
H66 -1.110060310150E-01  9.805268964300E-02 -4.403227238799E-02
H67 -2.093011146303E-01  2.303438805308E-01  9.143177762840E-02
H68  2.093011146303E-01 -2.303438805308E-01 -9.143177762840E-02
H69  4.404551379041E-01 -8.495008827122E-02  2.768515925664E-01
H70 -4.404551379041E-01  8.495008827122E-02 -2.768515925664E-01
H71 -4.865852088607E-01 -9.012461499791E-03  4.237637615334E-01
H72  4.865852088607E-01  9.012461499791E-03 -4.237637615334E-01
H73 -1.755035722885E-01 -9.406117736298E-02  4.859880624059E-01
H74  1.755035722885E-01  9.406117736298E-02 -4.859880624059E-01
H75  6.597374029190E-02 -2.484013778120E-01  3.999518361902E-01
H76 -6.597374029190E-02  2.484013778120E-01 -3.999518361902E-01
H77 -4.620025868105E-01 -2.207575948678E-01  1.411945559119E-01
H78  4.620025868105E-01  2.207575948678E-01 -1.411945559119E-01
H79  1.648597834481E-01 -3.811357756131E-01  2.646822303556E-01
H80 -1.648597834481E-01  3.811357756131E-01 -2.646822303556E-01
H81 -3.633261560590E-01 -3.539126038466E-01  5.869777034787E-03
H82  3.633261560590E-01  3.539126038466E-01 -5.869777034787E-03
H83  2.640531351672E-01  4.862018655590E-01  1.293844384387E-01
H84 -2.640531351672E-01 -4.862018655590E-01 -1.293844384387E-01


#===END

data_OPT_STEP_37

_symmetry_space_group_name_H-M 'P 1'
_cell_length_a      6.60347138
_cell_length_b      8.23539025
_cell_length_c     16.77239915
_cell_angle_alpha  100.890171
_cell_angle_beta   91.326778
_cell_angle_gamma   95.372556

loop_
_atom_site_label
_atom_site_fract_x
_atom_site_fract_y
_atom_site_fract_z
C1  6.247552074849E-02  2.371050483666E-01  3.259720417106E-01
C2 -6.247552074849E-02 -2.371050483666E-01 -3.259720417106E-01
C3  1.097109572127E-01  3.464332959222E-01  3.968139568985E-01
C4 -1.097109572127E-01 -3.464332959222E-01 -3.968139568985E-01
C5  3.037011597910E-01  4.424114127639E-01  4.100466458846E-01
C6 -3.037011597910E-01 -4.424114127639E-01 -4.100466458846E-01
C7  4.449861594514E-01  4.255942781512E-01  3.521168481279E-01
C8 -4.449861594514E-01 -4.255942781512E-01 -3.521168481279E-01
C9  4.032204034309E-01  3.115194924009E-01  2.763470960603E-01
C10 -4.032204034309E-01 -3.115194924009E-01 -2.763470960603E-01
C11  2.056541595820E-01  2.150269878634E-01  2.627404295575E-01
C12 -2.056541595820E-01 -2.150269878634E-01 -2.627404295575E-01
C13  1.610406970691E-01  1.053207244221E-01  1.899254050078E-01
C14 -1.610406970691E-01 -1.053207244221E-01 -1.899254050078E-01
C15  3.030674400072E-01  8.379274959178E-02  1.278917707185E-01
C16 -3.030674400072E-01 -8.379274959178E-02 -1.278917707185E-01
C17 -4.987120393222E-01  1.798120807375E-01  1.416941051591E-01
C18  4.987120393222E-01 -1.798120807375E-01 -1.416941051591E-01
C19 -4.558924449352E-01  2.917868008662E-01  2.164413687777E-01
C20  4.558924449352E-01 -2.917868008662E-01 -2.164413687777E-01
C21  2.590092693045E-01 -2.669432862644E-02  5.433471212923E-02
C22 -2.590092693045E-01  2.669432862644E-02 -5.433471212923E-02
C23  4.007677575497E-01 -4.797210288855E-02 -6.926033908004E-03
C24 -4.007677575497E-01  4.797210288855E-02  6.926033908004E-03
C25 -3.572822284702E-01  1.591147337462E-01  8.104279479552E-02
C26  3.572822284702E-01 -1.591147337462E-01 -8.104279479552E-02
C27 -4.236289892522E-01 -1.210833056073E-01  3.036679422164E-01
C28  4.236289892522E-01  1.210833056073E-01 -3.036679422164E-01
C29 -3.832199948777E-01 -8.005307639228E-02  3.852014705257E-01
C30  3.832199948777E-01  8.005307639228E-02 -3.852014705257E-01
C31 -2.043071996089E-01 -1.275005850877E-01  4.207984121953E-01
C32  2.043071996089E-01  1.275005850877E-01 -4.207984121953E-01
C33 -7.037598896268E-02 -2.131777997784E-01  3.734317060083E-01
C34  7.037598896268E-02  2.131777997784E-01 -3.734317060083E-01
C35 -1.052905523824E-01 -2.592550094922E-01  2.870559489891E-01
C36  1.052905523824E-01  2.592550094922E-01 -2.870559489891E-01
C37 -2.879394401603E-01 -2.124132152582E-01  2.511272403641E-01
C38  2.879394401603E-01  2.124132152582E-01 -2.511272403641E-01
C39 -3.253351656530E-01 -2.556546397091E-01  1.680163543738E-01
C40  3.253351656530E-01  2.556546397091E-01 -1.680163543738E-01
C41 -1.900604770265E-01 -3.447489132341E-01  1.165947967626E-01
C42  1.900604770265E-01  3.447489132341E-01 -1.165947967626E-01
C43 -6.964759922225E-03 -3.914173214827E-01  1.526085885740E-01
C44  6.964759922225E-03  3.914173214827E-01 -1.526085885740E-01
C45  2.865863173696E-02 -3.463900733637E-01  2.377186131783E-01
C46 -2.865863173696E-02  3.463900733637E-01 -2.377186131783E-01
C47 -2.266418043669E-01 -3.885163383199E-01  3.272154510817E-02
C48  2.266418043669E-01  3.885163383199E-01 -3.272154510817E-02
C49 -9.161174408372E-02 -4.766473344547E-01 -1.802688925280E-02
C50  9.161174408372E-02  4.766473344547E-01  1.802688925280E-02
C51  1.276281058295E-01 -4.790845205573E-01  1.024757817696E-01
C52 -1.276281058295E-01  4.790845205573E-01 -1.024757817696E-01
H53 -8.469356440846E-02  1.646552850152E-01  3.160110038104E-01
H54  8.469356440846E-02 -1.646552850152E-01 -3.160110038104E-01
H55  3.150904686934E-04  3.614348306658E-01  4.441237176467E-01
H56 -3.150904686934E-04 -3.614348306658E-01 -4.441237176467E-01
H57  3.380384336431E-01 -4.707080456142E-01  4.669412912569E-01
H58 -3.380384336431E-01  4.707080456142E-01 -4.669412912569E-01
H59 -4.082343293779E-01  4.987513657857E-01  3.621366739673E-01
H60  4.082343293779E-01 -4.987513657857E-01 -3.621366739673E-01
H61  1.325677649643E-02  3.369063327493E-02  1.797071812218E-01
H62 -1.325677649643E-02 -3.369063327493E-02 -1.797071812218E-01
H63 -3.082584998802E-01  3.636452607299E-01  2.267671077102E-01
H64  3.082584998802E-01 -3.636452607299E-01 -2.267671077102E-01
H65  1.111150613400E-01 -9.811116645108E-02  4.401587976952E-02
H66 -1.111150613400E-01  9.811116645108E-02 -4.401587976952E-02
H67 -2.094227088153E-01  2.305703314216E-01  9.140089860170E-02
H68  2.094227088153E-01 -2.305703314216E-01 -9.140089860170E-02
H69  4.406809401302E-01 -8.504127237803E-02  2.768542859445E-01
H70 -4.406809401302E-01  8.504127237803E-02 -2.768542859445E-01
H71 -4.862939479484E-01 -9.197886371304E-03  4.237742733025E-01
H72  4.862939479484E-01  9.197886371304E-03 -4.237742733025E-01
H73 -1.752527557727E-01 -9.429633599605E-02  4.860000907886E-01
H74  1.752527557727E-01  9.429633599605E-02 -4.860000907886E-01
H75  6.635568747821E-02 -2.483675836838E-01  3.999292676323E-01
H76 -6.635568747821E-02  2.483675836838E-01 -3.999292676323E-01
H77 -4.618230373479E-01 -2.207491150210E-01  1.411849654620E-01
H78  4.618230373479E-01  2.207491150210E-01 -1.411849654620E-01
H79  1.650937657690E-01 -3.810641338980E-01  2.646810132937E-01
H80 -1.650937657690E-01  3.810641338980E-01 -2.646810132937E-01
H81 -3.632281775884E-01 -3.538644075908E-01  5.856380416279E-03
H82  3.632281775884E-01  3.538644075908E-01 -5.856380416279E-03
H83  2.641599924986E-01  4.862892830870E-01  1.293859961573E-01
H84 -2.641599924986E-01 -4.862892830870E-01 -1.293859961573E-01


#===END

data_OPT_STEP_38

_symmetry_space_group_name_H-M 'P 1'
_cell_length_a      6.60461469
_cell_length_b      8.23413796
_cell_length_c     16.77263557
_cell_angle_alpha  100.887035
_cell_angle_beta   91.347906
_cell_angle_gamma   95.367825

loop_
_atom_site_label
_atom_site_fract_x
_atom_site_fract_y
_atom_site_fract_z
C1  6.270567146164E-02  2.370564580037E-01  3.259475632476E-01
C2 -6.270567146164E-02 -2.370564580037E-01 -3.259475632476E-01
C3  1.099516560884E-01  3.464204594096E-01  3.967840995689E-01
C4 -1.099516560884E-01 -3.464204594096E-01 -3.967840995689E-01
C5  3.038651651841E-01  4.424900344901E-01  4.100114380047E-01
C6 -3.038651651841E-01 -4.424900344901E-01 -4.100114380047E-01
C7  4.451070561213E-01  4.256749038095E-01  3.520949467554E-01
C8 -4.451070561213E-01 -4.256749038095E-01 -3.520949467554E-01
C9  4.033413157752E-01  3.115436707822E-01  2.763343929120E-01
C10 -4.033413157752E-01 -3.115436707822E-01 -2.763343929120E-01
C11  2.058120504322E-01  2.150222084093E-01  2.627174213588E-01
C12 -2.058120504322E-01 -2.150222084093E-01 -2.627174213588E-01
C13  1.611814029707E-01  1.053002430319E-01  1.899017066933E-01
C14 -1.611814029707E-01 -1.053002430319E-01 -1.899017066933E-01
C15  3.031781040426E-01  8.373844130054E-02  1.278882955910E-01
C16 -3.031781040426E-01 -8.373844130054E-02 -1.278882955910E-01
C17 -4.986141986613E-01  1.797454698870E-01  1.417109632668E-01
C18  4.986141986613E-01 -1.797454698870E-01 -1.417109632668E-01
C19 -4.558005112764E-01  2.917790447415E-01  2.164481176410E-01
C20  4.558005112764E-01 -2.917790447415E-01 -2.164481176410E-01
C21  2.590491013690E-01 -2.666599729688E-02  5.430708443703E-02
C22 -2.590491013690E-01  2.666599729688E-02 -5.430708443703E-02
C23  4.007678969808E-01 -4.795527275093E-02 -6.938580416093E-03
C24 -4.007678969808E-01  4.795527275093E-02  6.938580416093E-03
C25 -3.572598595954E-01  1.591082039185E-01  8.105704432518E-02
C26  3.572598595954E-01 -1.591082039185E-01 -8.105704432518E-02
C27 -4.233060138997E-01 -1.210685661871E-01  3.036759129516E-01
C28  4.233060138997E-01  1.210685661871E-01 -3.036759129516E-01
C29 -3.828760301688E-01 -8.013475300277E-02  3.852119318517E-01
C30  3.828760301688E-01  8.013475300277E-02 -3.852119318517E-01
C31 -2.040177042426E-01 -1.276995899039E-01  4.208127713862E-01
C32  2.040177042426E-01  1.276995899039E-01 -4.208127713862E-01
C33 -7.008464140206E-02 -2.132920014406E-01  3.734358633808E-01
C34  7.008464140206E-02  2.132920014406E-01 -3.734358633808E-01
C35 -1.050172630326E-01 -2.592529539661E-01  2.870543517826E-01
C36  1.050172630326E-01  2.592529539661E-01 -2.870543517826E-01
C37 -2.876788593672E-01 -2.123974801366E-01  2.511298652654E-01
C38  2.876788593672E-01  2.123974801366E-01 -2.511298652654E-01
C39 -3.251831043955E-01 -2.556859735163E-01  1.680237095594E-01
C40  3.251831043955E-01  2.556859735163E-01 -1.680237095594E-01
C41 -1.899235667352E-01 -3.447182883116E-01  1.165947505672E-01
C42  1.899235667352E-01  3.447182883116E-01 -1.165947505672E-01
C43 -6.830283916940E-03 -3.914233842980E-01  1.526065134291E-01
C44  6.830283916940E-03  3.914233842980E-01 -1.526065134291E-01
C45  2.886825865086E-02 -3.464003902493E-01  2.377154136717E-01
C46 -2.886825865086E-02  3.464003902493E-01 -2.377154136717E-01
C47 -2.266127506428E-01 -3.885387763314E-01  3.272607425176E-02
C48  2.266127506428E-01  3.885387763314E-01 -3.272607425176E-02
C49 -9.163788891756E-02 -4.766712724358E-01 -1.802305954468E-02
C50  9.163788891756E-02  4.766712724358E-01  1.802305954468E-02
C51  1.277183997562E-01 -4.790709728669E-01  1.024714085409E-01
C52 -1.277183997562E-01  4.790709728669E-01 -1.024714085409E-01
H53 -8.441663850970E-02  1.645668902335E-01  3.159817374625E-01
H54  8.441663850970E-02 -1.645668902335E-01 -3.159817374625E-01
H55  6.408461219777E-04  3.613997927669E-01  4.441013228833E-01
H56 -6.408461219777E-04 -3.613997927669E-01 -4.441013228833E-01
H57  3.381479002169E-01 -4.705930768850E-01  4.669057477831E-01
H58 -3.381479002169E-01  4.705930768850E-01 -4.669057477831E-01
H59 -4.081460623374E-01  4.988505150418E-01  3.621244826012E-01
H60  4.081460623374E-01 -4.988505150418E-01 -3.621244826012E-01
H61  1.341241320808E-02  3.368064859825E-02  1.796644266290E-01
H62 -1.341241320808E-02 -3.368064859825E-02 -1.796644266290E-01
H63 -3.082025242880E-01  3.636665595612E-01  2.267827929442E-01
H64  3.082025242880E-01 -3.636665595612E-01 -2.267827929442E-01
H65  1.111462048106E-01 -9.803505364634E-02  4.395903321367E-02
H66 -1.111462048106E-01  9.803505364634E-02 -4.395903321367E-02
H67 -2.094340335398E-01  2.305941125936E-01  9.142478068611E-02
H68  2.094340335398E-01 -2.305941125936E-01 -9.142478068611E-02
H69  4.409696747138E-01 -8.505092594507E-02  2.768684781952E-01
H70 -4.409696747138E-01  8.505092594507E-02 -2.768684781952E-01
H71 -4.859071558679E-01 -9.287651777410E-03  4.237922520677E-01
H72  4.859071558679E-01  9.287651777410E-03 -4.237922520677E-01
H73 -1.749701074346E-01 -9.457332533201E-02  4.860205184130E-01
H74  1.749701074346E-01  9.457332533201E-02 -4.860205184130E-01
H75  6.669299066595E-02 -2.484769354120E-01  3.999138447400E-01
H76 -6.669299066595E-02  2.484769354120E-01 -3.999138447400E-01
H77 -4.617643319385E-01 -2.209039817226E-01  1.411997930341E-01
H78  4.617643319385E-01  2.209039817226E-01 -1.411997930341E-01
H79  1.652358768999E-01 -3.811891732961E-01  2.646877702989E-01
H80 -1.652358768999E-01  3.811891732961E-01 -2.646877702989E-01
H81 -3.632463024983E-01 -3.539474811955E-01  5.861802252743E-03
H82  3.632463024983E-01  3.539474811955E-01 -5.861802252743E-03
H83  2.642322511140E-01  4.862696947088E-01  1.293869856704E-01
H84 -2.642322511140E-01 -4.862696947088E-01 -1.293869856704E-01


#===END

data_OPT_STEP_39

_symmetry_space_group_name_H-M 'P 1'
_cell_length_a      6.60589809
_cell_length_b      8.23255560
_cell_length_c     16.77224836
_cell_angle_alpha  100.878312
_cell_angle_beta   91.371161
_cell_angle_gamma   95.357241

loop_
_atom_site_label
_atom_site_fract_x
_atom_site_fract_y
_atom_site_fract_z
C1  6.292705591733E-02  2.370175488507E-01  3.259189958646E-01
C2 -6.292705591733E-02 -2.370175488507E-01 -3.259189958646E-01
C3  1.102036954778E-01  3.463657571123E-01  3.967613596714E-01
C4 -1.102036954778E-01 -3.463657571123E-01 -3.967613596714E-01
C5  3.040211529284E-01  4.425501217612E-01  4.099765966801E-01
C6 -3.040211529284E-01 -4.425501217612E-01 -4.099765966801E-01
C7  4.452249721920E-01  4.257188347619E-01  3.520771057846E-01
C8 -4.452249721920E-01 -4.257188347619E-01 -3.520771057846E-01
C9  4.034553819684E-01  3.115515175552E-01  2.763225801563E-01
C10 -4.034553819684E-01 -3.115515175552E-01 -2.763225801563E-01
C11  2.059648385198E-01  2.150188103536E-01  2.626930814272E-01
C12 -2.059648385198E-01 -2.150188103536E-01 -2.626930814272E-01
C13  1.613045621568E-01  1.053167324053E-01  1.898698588382E-01
C14 -1.613045621568E-01 -1.053167324053E-01 -1.898698588382E-01
C15  3.032316207388E-01  8.379083533549E-02  1.278591251288E-01
C16 -3.032316207388E-01 -8.379083533549E-02 -1.278591251288E-01
C17 -4.985828084427E-01  1.797805651393E-01  1.417007157929E-01
C18  4.985828084427E-01 -1.797805651393E-01 -1.417007157929E-01
C19 -4.557399070768E-01  2.917931540711E-01  2.164455279794E-01
C20  4.557399070768E-01 -2.917931540711E-01 -2.164455279794E-01
C21  2.591063934062E-01 -2.665589304622E-02  5.428605125264E-02
C22 -2.591063934062E-01  2.665589304622E-02 -5.428605125264E-02
C23  4.007795995431E-01 -4.794772517582E-02 -6.947554321263E-03
C24 -4.007795995431E-01  4.794772517582E-02  6.947554321263E-03
C25 -3.572631016940E-01  1.591204759266E-01  8.106342081415E-02
C26  3.572631016940E-01 -1.591204759266E-01 -8.106342081415E-02
C27 -4.230767151590E-01 -1.211398732614E-01  3.036798150713E-01
C28  4.230767151590E-01  1.211398732614E-01 -3.036798150713E-01
C29 -3.825975189216E-01 -8.025935529909E-02  3.852185512063E-01
C30  3.825975189216E-01  8.025935529909E-02 -3.852185512063E-01
C31 -2.036976617391E-01 -1.278041418866E-01  4.208173881684E-01
C32  2.036976617391E-01  1.278041418866E-01 -4.208173881684E-01
C33 -6.975665311754E-02 -2.133037710543E-01  3.734319631751E-01
C34  6.975665311754E-02  2.133037710543E-01 -3.734319631751E-01
C35 -1.047863570432E-01 -2.592739526559E-01  2.870512723389E-01
C36  1.047863570432E-01  2.592739526559E-01 -2.870512723389E-01
C37 -2.874863749496E-01 -2.124392414087E-01  2.511284249354E-01
C38  2.874863749496E-01  2.124392414087E-01 -2.511284249354E-01
C39 -3.250324508474E-01 -2.556836738412E-01  1.680194984015E-01
C40  3.250324508474E-01  2.556836738412E-01 -1.680194984015E-01
C41 -1.898278887794E-01 -3.447249541798E-01  1.165920444224E-01
C42  1.898278887794E-01  3.447249541798E-01 -1.165920444224E-01
C43 -6.676010269176E-03 -3.913790732566E-01  1.526006696376E-01
C44  6.676010269176E-03  3.913790732566E-01 -1.526006696376E-01
C45  2.908502873870E-02 -3.463692937885E-01  2.377095840124E-01
C46 -2.908502873870E-02  3.463692937885E-01 -2.377095840124E-01
C47 -2.265814069622E-01 -3.885439153894E-01  3.272349010489E-02
C48  2.265814069622E-01  3.885439153894E-01 -3.272349010489E-02
C49 -9.165671713803E-02 -4.766827264933E-01 -1.802244375153E-02
C50  9.165671713803E-02  4.766827264933E-01  1.802244375153E-02
C51  1.278397267363E-01 -4.790049474558E-01  1.024665891119E-01
C52 -1.278397267363E-01  4.790049474558E-01 -1.024665891119E-01
H53 -8.417201581267E-02  1.645480111291E-01  3.159375053730E-01
H54  8.417201581267E-02 -1.645480111291E-01 -3.159375053730E-01
H55  9.808297633244E-04  3.613205949985E-01  4.440874070901E-01
H56 -9.808297633244E-04 -3.613205949985E-01 -4.440874070901E-01
H57  3.382565296849E-01 -4.705075103029E-01  4.668700673130E-01
H58 -3.382565296849E-01  4.705075103029E-01 -4.668700673130E-01
H59 -4.080538389592E-01  4.988841718525E-01  3.621192321037E-01
H60  4.080538389592E-01 -4.988841718525E-01 -3.621192321037E-01
H61  1.357038779616E-02  3.368219602897E-02  1.796237012218E-01
H62 -1.357038779616E-02 -3.368219602897E-02 -1.796237012218E-01
H63 -3.081588444698E-01  3.636627781033E-01  2.267969974425E-01
H64  3.081588444698E-01 -3.636627781033E-01 -2.267969974425E-01
H65  1.112285347426E-01 -9.802589836661E-02  4.392484035292E-02
H66 -1.112285347426E-01  9.802589836661E-02 -4.392484035292E-02
H67 -2.094579852057E-01  2.305976406095E-01  9.144612572165E-02
H68  2.094579852057E-01 -2.305976406095E-01 -9.144612572165E-02
H69  4.411471367116E-01 -8.516822108357E-02  2.768783039343E-01
H70 -4.411471367116E-01  8.516822108357E-02 -2.768783039343E-01
H71 -4.856299535014E-01 -9.480728539999E-03  4.238093509174E-01
H72  4.856299535014E-01  9.480728539999E-03 -4.238093509174E-01
H73 -1.745912400394E-01 -9.466205450454E-02  4.860251302645E-01
H74  1.745912400394E-01  9.466205450454E-02 -4.860251302645E-01
H75  6.706199569227E-02 -2.484884593636E-01  3.998946592668E-01
H76 -6.706199569227E-02  2.484884593636E-01 -3.998946592668E-01
H77 -4.616552445460E-01 -2.209448890651E-01  1.411952075180E-01
H78  4.616552445460E-01  2.209448890651E-01 -1.411952075180E-01
H79  1.653996614177E-01 -3.812566972230E-01  2.646924621841E-01
H80 -1.653996614177E-01  3.812566972230E-01 -2.646924621841E-01
H81 -3.632131434821E-01 -3.539361480935E-01  5.852877300939E-03
H82  3.632131434821E-01  3.539361480935E-01 -5.852877300939E-03
H83  2.643821187011E-01  4.863640381620E-01  1.293850361533E-01
H84 -2.643821187011E-01 -4.863640381620E-01 -1.293850361533E-01


#===END

data_OPT_STEP_40

_symmetry_space_group_name_H-M 'P 1'
_cell_length_a      6.60718603
_cell_length_b      8.23098537
_cell_length_c     16.77228550
_cell_angle_alpha  100.869515
_cell_angle_beta   91.389595
_cell_angle_gamma   95.354229

loop_
_atom_site_label
_atom_site_fract_x
_atom_site_fract_y
_atom_site_fract_z
C1  6.312651281650E-02  2.369771495708E-01  3.258876070493E-01
C2 -6.312651281650E-02 -2.369771495708E-01 -3.258876070493E-01
C3  1.104304220749E-01  3.463351668973E-01  3.967283500727E-01
C4 -1.104304220749E-01 -3.463351668973E-01 -3.967283500727E-01
C5  3.042130934848E-01  4.425496124624E-01  4.099481079142E-01
C6 -3.042130934848E-01 -4.425496124624E-01 -4.099481079142E-01
C7  4.453732677574E-01  4.257253146363E-01  3.520614447426E-01
C8 -4.453732677574E-01 -4.257253146363E-01 -3.520614447426E-01
C9  4.035806672845E-01  3.115446658709E-01  2.763102768739E-01
C10 -4.035806672845E-01 -3.115446658709E-01 -2.763102768739E-01
C11  2.061119188665E-01  2.150001209656E-01  2.626696787669E-01
C12 -2.061119188665E-01 -2.150001209656E-01 -2.626696787669E-01
C13  1.614314515279E-01  1.052874514696E-01  1.898475570550E-01
C14 -1.614314515279E-01 -1.052874514696E-01 -1.898475570550E-01
C15  3.033111496441E-01  8.377407955355E-02  1.278458229534E-01
C16 -3.033111496441E-01 -8.377407955355E-02 -1.278458229534E-01
C17 -4.985134998597E-01  1.797578189926E-01  1.417029867594E-01
C18  4.985134998597E-01 -1.797578189926E-01 -1.417029867594E-01
C19 -4.556541383060E-01  2.917836884372E-01  2.164454023727E-01
C20  4.556541383060E-01 -2.917836884372E-01 -2.164454023727E-01
C21  2.591508862281E-01 -2.665729749347E-02  5.426771627849E-02
C22 -2.591508862281E-01  2.665729749347E-02 -5.426771627849E-02
C23  4.007820830800E-01 -4.794047050586E-02 -6.956507273637E-03
C24 -4.007820830800E-01  4.794047050586E-02  6.956507273637E-03
C25 -3.572317380355E-01  1.590994855246E-01  8.107679453707E-02
C26  3.572317380355E-01 -1.590994855246E-01 -8.107679453707E-02
C27 -4.228569239584E-01 -1.212843724720E-01  3.036948895111E-01
C28  4.228569239584E-01  1.212843724720E-01 -3.036948895111E-01
C29 -3.823272081296E-01 -8.047064311525E-02  3.852346163682E-01
C30  3.823272081296E-01  8.047064311525E-02 -3.852346163682E-01
C31 -2.033820309068E-01 -1.279758698252E-01  4.208225398060E-01
C32  2.033820309068E-01  1.279758698252E-01 -4.208225398060E-01
C33 -6.944250319150E-02 -2.133726673216E-01  3.734242619444E-01
C34  6.944250319150E-02  2.133726673216E-01 -3.734242619444E-01
C35 -1.045201879133E-01 -2.592668464143E-01  2.870411872935E-01
C36  1.045201879133E-01  2.592668464143E-01 -2.870411872935E-01
C37 -2.872693046863E-01 -2.124837738310E-01  2.511289451061E-01
C38  2.872693046863E-01  2.124837738310E-01 -2.511289451061E-01
C39 -3.248747096608E-01 -2.557073417596E-01  1.680217838089E-01
C40  3.248747096608E-01  2.557073417596E-01 -1.680217838089E-01
C41 -1.897017296841E-01 -3.447071764086E-01  1.165899284223E-01
C42  1.897017296841E-01  3.447071764086E-01 -1.165899284223E-01
C43 -6.540126783193E-03 -3.913626723166E-01  1.525923272339E-01
C44  6.540126783193E-03  3.913626723166E-01 -1.525923272339E-01
C45  2.929699423494E-02 -3.463485915550E-01  2.376963452890E-01
C46 -2.929699423494E-02  3.463485915550E-01 -2.376963452890E-01
C47 -2.265142040225E-01 -3.885202488727E-01  3.272420256955E-02
C48  2.265142040225E-01  3.885202488727E-01 -3.272420256955E-02
C49 -9.165860582078E-02 -4.766800229871E-01 -1.801958424570E-02
C50  9.165860582078E-02  4.766800229871E-01  1.801958424570E-02
C51  1.279207338944E-01 -4.789837699557E-01  1.024582571131E-01
C52 -1.279207338944E-01  4.789837699557E-01 -1.024582571131E-01
H53 -8.393388528951E-02  1.644781137886E-01  3.159046708558E-01
H54  8.393388528951E-02 -1.644781137886E-01 -3.159046708558E-01
H55  1.321455522645E-03  3.612321953620E-01  4.440755177868E-01
H56 -1.321455522645E-03 -3.612321953620E-01 -4.440755177868E-01
H57  3.384044625538E-01 -4.704737933827E-01  4.668352910341E-01
H58 -3.384044625538E-01  4.704737933827E-01 -4.668352910341E-01
H59 -4.079419664962E-01  4.989184175344E-01  3.621041920502E-01
H60  4.079419664962E-01 -4.989184175344E-01 -3.621041920502E-01
H61  1.371639591774E-02  3.364736252238E-02  1.795923238652E-01
H62 -1.371639591774E-02 -3.364736252238E-02 -1.795923238652E-01
H63 -3.080917652795E-01  3.636592868267E-01  2.268052772109E-01
H64  3.080917652795E-01 -3.636592868267E-01 -2.268052772109E-01
H65  1.112816437803E-01 -9.801869553205E-02  4.389372605431E-02
H66 -1.112816437803E-01  9.801869553205E-02 -4.389372605431E-02
H67 -2.094329017730E-01  2.305629441820E-01  9.147292884562E-02
H68  2.094329017730E-01 -2.305629441820E-01 -9.147292884562E-02
H69  4.413450170084E-01 -8.531966683635E-02  2.769026938847E-01
H70 -4.413450170084E-01  8.531966683635E-02 -2.769026938847E-01
H71 -4.853508447783E-01 -9.767825641933E-03  4.238414563064E-01
H72  4.853508447783E-01  9.767825641933E-03 -4.238414563064E-01
H73 -1.742494716604E-01 -9.487214266272E-02  4.860313001013E-01
H74  1.742494716604E-01  9.487214266272E-02 -4.860313001013E-01
H75  6.744442399646E-02 -2.485150054928E-01  3.998608325727E-01
H76 -6.744442399646E-02  2.485150054928E-01 -3.998608325727E-01
H77 -4.615236848383E-01 -2.209961193443E-01  1.412005851488E-01
H78  4.615236848383E-01  2.209961193443E-01 -1.412005851488E-01
H79  1.656436384625E-01 -3.812023839760E-01  2.646754004740E-01
H80 -1.656436384625E-01  3.812023839760E-01 -2.646754004740E-01
H81 -3.631536461860E-01 -3.539184350424E-01  5.852859753058E-03
H82  3.631536461860E-01  3.539184350424E-01 -5.852859753058E-03
H83  2.644859356108E-01  4.864128726160E-01  1.293751081847E-01
H84 -2.644859356108E-01 -4.864128726160E-01 -1.293751081847E-01


#===END

data_OPT_STEP_41

_symmetry_space_group_name_H-M 'P 1'
_cell_length_a      6.60833612
_cell_length_b      8.22946242
_cell_length_c     16.77264384
_cell_angle_alpha  100.862289
_cell_angle_beta   91.405511
_cell_angle_gamma   95.354467

loop_
_atom_site_label
_atom_site_fract_x
_atom_site_fract_y
_atom_site_fract_z
C1  6.330235278250E-02  2.369291435660E-01  3.258490667973E-01
C2 -6.330235278250E-02 -2.369291435660E-01 -3.258490667973E-01
C3  1.106445207103E-01  3.462652798797E-01  3.966954728149E-01
C4 -1.106445207103E-01 -3.462652798797E-01 -3.966954728149E-01
C5  3.044007145022E-01  4.424993970886E-01  4.099242307658E-01
C6 -3.044007145022E-01 -4.424993970886E-01 -4.099242307658E-01
C7  4.455146933041E-01  4.257018426030E-01  3.520469160063E-01
C8 -4.455146933041E-01 -4.257018426030E-01 -3.520469160063E-01
C9  4.037073103217E-01  3.115003141201E-01  2.763010568721E-01
C10 -4.037073103217E-01 -3.115003141201E-01 -2.763010568721E-01
C11  2.062501798608E-01  2.149578662785E-01  2.626440716879E-01
C12 -2.062501798608E-01 -2.149578662785E-01 -2.626440716879E-01
C13  1.615379291304E-01  1.052655431588E-01  1.898161293608E-01
C14 -1.615379291304E-01 -1.052655431588E-01 -1.898161293608E-01
C15  3.033912582050E-01  8.373696733881E-02  1.278322875793E-01
C16 -3.033912582050E-01 -8.373696733881E-02 -1.278322875793E-01
C17 -4.984316481705E-01  1.796973855764E-01  1.417119762265E-01
C18  4.984316481705E-01 -1.796973855764E-01 -1.417119762265E-01
C19 -4.555570525438E-01  2.917325650294E-01  2.164519866334E-01
C20  4.555570525438E-01 -2.917325650294E-01 -2.164519866334E-01
C21  2.591767719955E-01 -2.663580410197E-02  5.423928222760E-02
C22 -2.591767719955E-01  2.663580410197E-02 -5.423928222760E-02
C23  4.007746240369E-01 -4.791816060095E-02 -6.970754047238E-03
C24 -4.007746240369E-01  4.791816060095E-02  6.970754047238E-03
C25 -3.571796340589E-01  1.590369994380E-01  8.110120504061E-02
C26  3.571796340589E-01 -1.590369994380E-01 -8.110120504061E-02
C27 -4.225720290247E-01 -1.213741455740E-01  3.037164420263E-01
C28  4.225720290247E-01  1.213741455740E-01 -3.037164420263E-01
C29 -3.819780751572E-01 -8.060815226220E-02  3.852540901222E-01
C30  3.819780751572E-01  8.060815226220E-02 -3.852540901222E-01
C31 -2.029806314018E-01 -1.280703776404E-01  4.208254632826E-01
C32  2.029806314018E-01  1.280703776404E-01 -4.208254632826E-01
C33 -6.910685649572E-02 -2.134594467367E-01  3.734177915238E-01
C34  6.910685649572E-02  2.134594467367E-01 -3.734177915238E-01
C35 -1.042802908018E-01 -2.593408897482E-01  2.870388589538E-01
C36  1.042802908018E-01  2.593408897482E-01 -2.870388589538E-01
C37 -2.870583609099E-01 -2.125732047123E-01  2.511398091965E-01
C38  2.870583609099E-01  2.125732047123E-01 -2.511398091965E-01
C39 -3.247264308433E-01 -2.557702641817E-01  1.680351045785E-01
C40  3.247264308433E-01  2.557702641817E-01 -1.680351045785E-01
C41 -1.896376161969E-01 -3.447981304701E-01  1.165995976661E-01
C42  1.896376161969E-01  3.447981304701E-01 -1.165995976661E-01
C43 -6.452285545469E-03 -3.914414662269E-01  1.525904278804E-01
C44  6.452285545468E-03  3.914414662269E-01 -1.525904278804E-01
C45  2.945039180240E-02 -3.464516181490E-01  2.376906155507E-01
C46 -2.945039180240E-02  3.464516181490E-01 -2.376906155507E-01
C47 -2.265247015330E-01 -3.886154007862E-01  3.273833879579E-02
C48  2.265247015330E-01  3.886154007862E-01 -3.273833879579E-02
C49 -9.167032918398E-02 -4.766867140148E-01 -1.801390225835E-02
C50  9.167032918398E-02  4.766867140148E-01  1.801390225835E-02
C51  1.279642445326E-01 -4.790362458650E-01  1.024516096563E-01
C52 -1.279642445326E-01  4.790362458650E-01 -1.024516096563E-01
H53 -8.373503138427E-02  1.644129131510E-01  3.158622198923E-01
H54  8.373503138427E-02 -1.644129131510E-01 -3.158622198923E-01
H55  1.634034951772E-03  3.611151829269E-01  4.440604557571E-01
H56 -1.634034951772E-03 -3.611151829269E-01 -4.440604557571E-01
H57  3.385700679237E-01 -4.705030867103E-01  4.668060605601E-01
H58 -3.385700679237E-01  4.705030867103E-01 -4.668060605601E-01
H59 -4.078140189902E-01  4.988955050395E-01  3.620958874533E-01
H60  4.078140189902E-01 -4.988955050395E-01 -3.620958874533E-01
H61  1.382407792086E-02  3.364132738300E-02  1.795479944727E-01
H62 -1.382407792086E-02 -3.364132738300E-02 -1.795479944727E-01
H63 -3.080096576886E-01  3.636203541755E-01  2.268183977052E-01
H64  3.080096576886E-01 -3.636203541755E-01 -2.268183977052E-01
H65  1.113003617306E-01 -9.797015948979E-02  4.384904261336E-02
H66 -1.113003617306E-01  9.797015948979E-02 -4.384904261336E-02
H67 -2.093772559424E-01  2.304814306988E-01  9.151165218721E-02
H68  2.093772559424E-01 -2.304814306988E-01 -9.151165218721E-02
H69  4.416305533564E-01 -8.538106198121E-02  2.769354307079E-01
H70 -4.416305533564E-01  8.538106198121E-02 -2.769354307079E-01
H71 -4.849881783291E-01 -9.972213858698E-03  4.238776397780E-01
H72  4.849881783291E-01  9.972213858698E-03 -4.238776397780E-01
H73 -1.738319738644E-01 -9.502804331384E-02  4.860349328140E-01
H74  1.738319738644E-01  9.502804331384E-02 -4.860349328140E-01
H75  6.783045134430E-02 -2.485826932087E-01  3.998274418000E-01
H76 -6.783045134430E-02  2.485826932087E-01 -3.998274418000E-01
H77 -4.613477099926E-01 -2.210025747840E-01  1.412165998168E-01
H78  4.613477099926E-01  2.210025747840E-01 -1.412165998168E-01
H79  1.658039844962E-01 -3.813125861767E-01  2.646632834851E-01
H80 -1.658039844962E-01  3.813125861767E-01 -2.646632834851E-01
H81 -3.632172357873E-01 -3.540833097789E-01  5.875431855209E-03
H82  3.632172357873E-01  3.540833097789E-01 -5.875431855209E-03
H83  2.645299909256E-01  4.863505563607E-01  1.293641504138E-01
H84 -2.645299909256E-01 -4.863505563607E-01 -1.293641504138E-01


#===END

data_OPT_STEP_42

_symmetry_space_group_name_H-M 'P 1'
_cell_length_a      6.60939440
_cell_length_b      8.22807806
_cell_length_c     16.77290680
_cell_angle_alpha  100.853971
_cell_angle_beta   91.420362
_cell_angle_gamma   95.354323

loop_
_atom_site_label
_atom_site_fract_x
_atom_site_fract_y
_atom_site_fract_z
C1  6.347051159518E-02  2.368853955389E-01  3.258104643047E-01
C2 -6.347051159518E-02 -2.368853955389E-01 -3.258104643047E-01
C3  1.108461899681E-01  3.462067528064E-01  3.966597909254E-01
C4 -1.108461899681E-01 -3.462067528064E-01 -3.966597909254E-01
C5  3.045828659692E-01  4.424448568986E-01  4.098981781085E-01
C6 -3.045828659692E-01 -4.424448568986E-01 -4.098981781085E-01
C7  4.456426523515E-01  4.256852428182E-01  3.520252358876E-01
C8 -4.456426523515E-01 -4.256852428182E-01 -3.520252358876E-01
C9  4.038161425002E-01  3.114712281067E-01  2.762841390937E-01
C10 -4.038161425002E-01 -3.114712281067E-01 -2.762841390937E-01
C11  2.063678538920E-01  2.149391568307E-01  2.626115869142E-01
C12 -2.063678538920E-01 -2.149391568307E-01 -2.626115869142E-01
C13  1.616264340082E-01  1.052641522943E-01  1.897797181763E-01
C14 -1.616264340082E-01 -1.052641522943E-01 -1.897797181763E-01
C15  3.034429296713E-01  8.374126666089E-02  1.278076509011E-01
C16 -3.034429296713E-01 -8.374126666089E-02 -1.278076509011E-01
C17 -4.983732748909E-01  1.796673392650E-01  1.417106124573E-01
C18  4.983732748909E-01 -1.796673392650E-01 -1.417106124573E-01
C19 -4.554760216810E-01  2.916935373781E-01  2.164507336855E-01
C20  4.554760216810E-01 -2.916935373781E-01 -2.164507336855E-01
C21  2.592015269913E-01 -2.661679257051E-02  5.421222007611E-02
C22 -2.592015269913E-01  2.661679257051E-02 -5.421222007611E-02
C23  4.007681768714E-01 -4.789711589951E-02 -6.983926485643E-03
C24 -4.007681768714E-01  4.789711589951E-02  6.983926485643E-03
C25 -3.571191218511E-01  1.589496185488E-01  8.112907688355E-02
C26  3.571191218511E-01 -1.589496185488E-01 -8.112907688355E-02
C27 -4.223411070230E-01 -1.215433247111E-01  3.037462334224E-01
C28  4.223411070230E-01  1.215433247111E-01 -3.037462334224E-01
C29 -3.816525052927E-01 -8.078716364418E-02  3.852790116693E-01
C30  3.816525052927E-01  8.078716364418E-02 -3.852790116693E-01
C31 -2.026139822467E-01 -1.282268927362E-01  4.208332908687E-01
C32  2.026139822467E-01  1.282268927362E-01 -4.208332908687E-01
C33 -6.879274263379E-02 -2.135893039119E-01  3.734138633641E-01
C34  6.879274263379E-02  2.135893039119E-01 -3.734138633641E-01
C35 -1.040268108490E-01 -2.594019171873E-01  2.870356627012E-01
C36  1.040268108490E-01  2.594019171873E-01 -2.870356627012E-01
C37 -2.868330857300E-01 -2.126413112651E-01  2.511506437073E-01
C38  2.868330857300E-01  2.126413112651E-01 -2.511506437073E-01
C39 -3.245657803449E-01 -2.558111269562E-01  1.680485361890E-01
C40  3.245657803449E-01  2.558111269562E-01 -1.680485361890E-01
C41 -1.895013266246E-01 -3.447784774534E-01  1.166025311688E-01
C42  1.895013266246E-01  3.447784774534E-01 -1.166025311688E-01
C43 -6.313942053100E-03 -3.914495611055E-01  1.525836270521E-01
C44  6.313942053100E-03  3.914495611055E-01 -1.525836270521E-01
C45  2.967998817310E-02 -3.464509680817E-01  2.376775661758E-01
C46 -2.967998817310E-02  3.464509680817E-01 -2.376775661758E-01
C47 -2.264088068822E-01 -3.885156422799E-01  3.274016211859E-02
C48  2.264088068822E-01  3.885156422799E-01 -3.274016211859E-02
C49 -9.166081666790E-02 -4.766573462913E-01 -1.801062746128E-02
C50  9.166081666790E-02  4.766573462913E-01  1.801062746128E-02
C51  1.280443800426E-01 -4.790450333813E-01  1.024418629621E-01
C52 -1.280443800426E-01  4.790450333813E-01 -1.024418629621E-01
H53 -8.353340155531E-02  1.643238057478E-01  3.158307034242E-01
H54  8.353340155531E-02 -1.643238057478E-01 -3.158307034242E-01
H55  1.932274230779E-03  3.610110369527E-01  4.440447280630E-01
H56 -1.932274230779E-03 -3.610110369527E-01 -4.440447280630E-01
H57  3.387660280419E-01 -4.705733693668E-01  4.667797910171E-01
H58 -3.387660280419E-01  4.705733693668E-01 -4.667797910171E-01
H59 -4.077065349892E-01  4.989000218371E-01  3.620709363124E-01
H60  4.077065349892E-01 -4.989000218371E-01 -3.620709363124E-01
H61  1.392461492389E-02  3.362967076150E-02  1.795096549160E-01
H62 -1.392461492389E-02 -3.362967076150E-02 -1.795096549160E-01
H63 -3.079245746555E-01  3.635650233215E-01  2.268266022627E-01
H64  3.079245746555E-01 -3.635650233215E-01 -2.268266022627E-01
H65  1.113187742301E-01 -9.792997747979E-02  4.381130139362E-02
H66 -1.113187742301E-01  9.792997747979E-02 -4.381130139362E-02
H67 -2.092818923118E-01  2.303224550291E-01  9.156302800025E-02
H68  2.092818923118E-01 -2.303224550291E-01 -9.156302800025E-02
H69  4.418150469852E-01 -8.558507747988E-02  2.769834681715E-01
H70 -4.418150469851E-01  8.558507747988E-02 -2.769834681715E-01
H71 -4.846121749603E-01 -1.017098764906E-02  4.239199021924E-01
H72  4.846121749603E-01  1.017098764906E-02 -4.239199021924E-01
H73 -1.734248373660E-01 -9.521585207541E-02  4.860405605138E-01
H74  1.734248373660E-01  9.521585207541E-02 -4.860405605138E-01
H75  6.819260853224E-02 -2.486963974181E-01  3.997961864900E-01
H76 -6.819260853224E-02  2.486963974181E-01 -3.997961864900E-01
H77 -4.612028023225E-01 -2.210469357685E-01  1.412394915997E-01
H78  4.612028023225E-01  2.210469357685E-01 -1.412394915997E-01
H79  1.660724373073E-01 -3.812780310932E-01  2.646383459240E-01
H80 -1.660724373073E-01  3.812780310932E-01 -2.646383459240E-01
H81 -3.630757362754E-01 -3.539308872626E-01  5.879909414374E-03
H82  3.630757362754E-01  3.539308872626E-01 -5.879909414374E-03
H83  2.646168464871E-01  4.863338455679E-01  1.293476807607E-01
H84 -2.646168464871E-01 -4.863338455679E-01 -1.293476807607E-01


#===END

data_OPT_STEP_43

_symmetry_space_group_name_H-M 'P 1'
_cell_length_a      6.61069076
_cell_length_b      8.22657552
_cell_length_c     16.77352356
_cell_angle_alpha  100.845706
_cell_angle_beta   91.433281
_cell_angle_gamma   95.355846

loop_
_atom_site_label
_atom_site_fract_x
_atom_site_fract_y
_atom_site_fract_z
C1  6.368440312336E-02  2.368230333346E-01  3.257812677693E-01
C2 -6.368440312336E-02 -2.368230333346E-01 -3.257812677693E-01
C3  1.110762107951E-01  3.461617221726E-01  3.966246083941E-01
C4 -1.110762107951E-01 -3.461617221726E-01 -3.966246083941E-01
C5  3.047996403293E-01  4.423822997609E-01  4.098747762538E-01
C6 -3.047996403293E-01 -4.423822997609E-01 -4.098747762538E-01
C7  4.458210900561E-01  4.256151112915E-01  3.520147552760E-01
C8 -4.458210900561E-01 -4.256151112915E-01 -3.520147552760E-01
C9  4.039554709073E-01  3.114273123833E-01  2.762710759751E-01
C10 -4.039554709073E-01 -3.114273123833E-01 -2.762710759751E-01
C11  2.065261574482E-01  2.148953609805E-01  2.625882129585E-01
C12 -2.065261574482E-01 -2.148953609805E-01 -2.625882129585E-01
C13  1.617653863685E-01  1.052132810357E-01  1.897593111986E-01
C14 -1.617653863685E-01 -1.052132810357E-01 -1.897593111986E-01
C15  3.035194130176E-01  8.372829232568E-02  1.277899308037E-01
C16 -3.035194130176E-01 -8.372829232568E-02 -1.277899308037E-01
C17 -4.983066656349E-01  1.796418875274E-01  1.417079434267E-01
C18  4.983066656349E-01 -1.796418875274E-01 -1.417079434267E-01
C19 -4.553766933447E-01  2.916486203598E-01  2.164501029410E-01
C20  4.553766933447E-01 -2.916486203598E-01 -2.164501029410E-01
C21  2.592481258065E-01 -2.661615495954E-02  5.419319007948E-02
C22 -2.592481258065E-01  2.661615495954E-02 -5.419319007948E-02
C23  4.007715578825E-01 -4.788958311940E-02 -6.992087962336E-03
C24 -4.007715578825E-01  4.788958311940E-02  6.992087962336E-03
C25 -3.570823793276E-01  1.589073513524E-01  8.114334503149E-02
C26  3.570823793276E-01 -1.589073513524E-01 -8.114334503149E-02
C27 -4.221069286143E-01 -1.217172448957E-01  3.037706347219E-01
C28  4.221069286143E-01  1.217172448957E-01 -3.037706347219E-01
C29 -3.813944341849E-01 -8.104905858355E-02  3.853021597831E-01
C30  3.813944341849E-01  8.104905858355E-02 -3.853021597831E-01
C31 -2.023176527894E-01 -1.284434350459E-01  4.208383804002E-01
C32  2.023176527894E-01  1.284434350459E-01 -4.208383804002E-01
C33 -6.849806045205E-02 -2.137036789797E-01  3.734047271788E-01
C34  6.849806045205E-02  2.137036789797E-01 -3.734047271788E-01
C35 -1.038005956682E-01 -2.594876317798E-01  2.870314379330E-01
C36  1.038005956682E-01  2.594876317798E-01 -2.870314379330E-01
C37 -2.866328439435E-01 -2.127538938639E-01  2.511622903350E-01
C38  2.866328439435E-01  2.127538938639E-01 -2.511622903350E-01
C39 -3.243826780694E-01 -2.558389330645E-01  1.680612250091E-01
C40  3.243826780694E-01  2.558389330645E-01 -1.680612250091E-01
C41 -1.893654326655E-01 -3.447715414940E-01  1.166066526053E-01
C42  1.893654326655E-01  3.447715414940E-01 -1.166066526053E-01
C43 -6.191384390758E-03 -3.914775490903E-01  1.525770507620E-01
C44  6.191384390758E-03  3.914775490903E-01 -1.525770507620E-01
C45  2.986225071666E-02 -3.465015044851E-01  2.376657250302E-01
C46 -2.986225071666E-02  3.465015044851E-01 -2.376657250302E-01
C47 -2.263739163457E-01 -3.885490626082E-01  3.275286779177E-02
C48  2.263739163457E-01  3.885490626082E-01 -3.275286779177E-02
C49 -9.165905413637E-02 -4.766438573034E-01 -1.800541882080E-02
C50  9.165905413637E-02  4.766438573034E-01  1.800541882080E-02
C51  1.280985800129E-01 -4.790843790193E-01  1.024325163019E-01
C52 -1.280985800129E-01  4.790843790193E-01 -1.024325163019E-01
H53 -8.328999414274E-02  1.642255920671E-01  3.158077774637E-01
H54  8.328999414274E-02 -1.642255920671E-01 -3.158077774637E-01
H55  2.243359779034E-03  3.609282304024E-01  4.440219289763E-01
H56 -2.243359779034E-03 -3.609282304024E-01 -4.440219289763E-01
H57  3.390128466868E-01 -4.706466697352E-01  4.667529087999E-01
H58 -3.390128466868E-01  4.706466697352E-01 -4.667529087999E-01
H59 -4.075779780096E-01  4.989031370346E-01  3.620448987682E-01
H60  4.075779780096E-01 -4.989031370346E-01 -3.620448987682E-01
H61  1.407333780426E-02  3.357828352168E-02  1.794863797613E-01
H62 -1.407333780426E-02 -3.357828352168E-02 -1.794863797613E-01
H63 -3.078108958834E-01  3.634847332846E-01  2.268389203682E-01
H64  3.078108958834E-01 -3.634847332846E-01 -2.268389203682E-01
H65  1.113576996180E-01 -9.789947052701E-02  4.378140388414E-02
H66 -1.113576996180E-01  9.789947052701E-02 -4.378140388414E-02
H67 -2.092197428241E-01  2.302211015050E-01  9.159561407113E-02
H68  2.092197428241E-01 -2.302211015050E-01 -9.159561407113E-02
H69  4.420891597152E-01 -8.568082812063E-02  2.770174653264E-01
H70 -4.420891597152E-01  8.568082812063E-02 -2.770174653264E-01
H71 -4.842957832178E-01 -1.044205663119E-02  4.239574135566E-01
H72  4.842957832178E-01  1.044205663119E-02 -4.239574135566E-01
H73 -1.730459316713E-01 -9.539284825743E-02  4.860369056689E-01
H74  1.730459316713E-01  9.539284825744E-02 -4.860369056689E-01
H75  6.851473539567E-02 -2.487946238597E-01  3.997669519536E-01
H76 -6.851473539567E-02  2.487946238597E-01 -3.997669519536E-01
H77 -4.610385360765E-01 -2.210910309808E-01  1.412649959888E-01
H78  4.610385360765E-01  2.210910309808E-01 -1.412649959888E-01
H79  1.662590882439E-01 -3.813345919245E-01  2.646152985910E-01
H80 -1.662590882439E-01  3.813345919245E-01 -2.646152985910E-01
H81 -3.630471353151E-01 -3.539629503732E-01  5.902222454203E-03
H82  3.630471353151E-01  3.539629503732E-01 -5.902222454203E-03
H83  2.646842593664E-01  4.863013255546E-01  1.293281653731E-01
H84 -2.646842593664E-01 -4.863013255546E-01 -1.293281653731E-01


#===END

data_OPT_STEP_44

_symmetry_space_group_name_H-M 'P 1'
_cell_length_a      6.61179481
_cell_length_b      8.22502807
_cell_length_c     16.77456905
_cell_angle_alpha  100.837893
_cell_angle_beta   91.447267
_cell_angle_gamma   95.353184

loop_
_atom_site_label
_atom_site_fract_x
_atom_site_fract_y
_atom_site_fract_z
C1  6.390554643312E-02  2.367419309724E-01  3.257547245424E-01
C2 -6.390554643312E-02 -2.367419309724E-01 -3.257547245424E-01
C3  1.113212626301E-01  3.460752731444E-01  3.965954769600E-01
C4 -1.113212626301E-01 -3.460752731444E-01 -3.965954769600E-01
C5  3.050140278846E-01  4.423114245663E-01  4.098499182872E-01
C6 -3.050140278846E-01 -4.423114245663E-01 -4.098499182872E-01
C7  4.459839533105E-01  4.255653613355E-01  3.519966281913E-01
C8 -4.459839533105E-01 -4.255653613355E-01 -3.519966281913E-01
C9  4.041064255573E-01  3.113587123332E-01  2.762618227059E-01
C10 -4.041064255573E-01 -3.113587123332E-01 -2.762618227059E-01
C11  2.066980599775E-01  2.148249258748E-01  2.625705236549E-01
C12 -2.066980599775E-01 -2.148249258748E-01 -2.625705236549E-01
C13  1.618999304045E-01  1.051744008634E-01  1.897372753418E-01
C14 -1.618999304045E-01 -1.051744008634E-01 -1.897372753418E-01
C15  3.036153352528E-01  8.368258573141E-02  1.277815792547E-01
C16 -3.036153352528E-01 -8.368258573141E-02 -1.277815792547E-01
C17 -4.982238394900E-01  1.795848516785E-01  1.417115459071E-01
C18  4.982238394900E-01 -1.795848516785E-01 -1.417115459071E-01
C19 -4.552739858148E-01  2.915944615423E-01  2.164492353156E-01
C20  4.552739858148E-01 -2.915944615423E-01 -2.164492353156E-01
C21  2.592966694751E-01 -2.661361403305E-02  5.417648758721E-02
C22 -2.592966694751E-01  2.661361403305E-02 -5.417648758721E-02
C23  4.007722560970E-01 -4.787395961465E-02 -7.000586827189E-03
C24 -4.007722560970E-01  4.787395961465E-02  7.000586827189E-03
C25 -3.570474127721E-01  1.588634781600E-01  8.115507181909E-02
C26  3.570474127721E-01 -1.588634781600E-01 -8.115507181909E-02
C27 -4.218645008111E-01 -1.218673915822E-01  3.037924337499E-01
C28  4.218645008111E-01  1.218673915822E-01 -3.037924337499E-01
C29 -3.811010536126E-01 -8.124579351400E-02  3.853177740061E-01
C30  3.811010536126E-01  8.124579351400E-02 -3.853177740061E-01
C31 -2.019861244723E-01 -1.286141293678E-01  4.208352451117E-01
C32  2.019861244723E-01  1.286141293678E-01 -4.208352451117E-01
C33 -6.820360875585E-02 -2.138381875161E-01  3.733918382414E-01
C34  6.820360875585E-02  2.138381875161E-01 -3.733918382414E-01
C35 -1.035738732884E-01 -2.595925195847E-01  2.870253309706E-01
C36  1.035738732884E-01  2.595925195847E-01 -2.870253309706E-01
C37 -2.864184227497E-01 -2.128473446399E-01  2.511725688047E-01
C38  2.864184227497E-01  2.128473446399E-01 -2.511725688047E-01
C39 -3.242339383371E-01 -2.559093977376E-01  1.680795416599E-01
C40  3.242339383371E-01  2.559093977376E-01 -1.680795416599E-01
C41 -1.892891186856E-01 -3.448529898617E-01  1.166184837137E-01
C42  1.892891186856E-01  3.448529898617E-01 -1.166184837137E-01
C43 -6.076838736048E-03 -3.915373874167E-01  1.525701862683E-01
C44  6.076838736048E-03  3.915373874167E-01 -1.525701862683E-01
C45  3.005296682032E-02 -3.465695459826E-01  2.376503615373E-01
C46 -3.005296682032E-02  3.465695459826E-01 -2.376503615373E-01
C47 -2.263369900107E-01 -3.885655333711E-01  3.276910363122E-02
C48  2.263369900107E-01  3.885655333711E-01 -3.276910363122E-02
C49 -9.167333353383E-02 -4.766443306346E-01 -1.799692172900E-02
C50  9.167333353383E-02  4.766443306346E-01  1.799692172900E-02
C51  1.281797800882E-01 -4.791088941955E-01  1.024173362064E-01
C52 -1.281797800882E-01  4.791088941955E-01 -1.024173362064E-01
H53 -8.305664803237E-02  1.641457497211E-01  3.157778809922E-01
H54  8.305664803237E-02 -1.641457497211E-01 -3.157778809922E-01
H55  2.544110886225E-03  3.608284441269E-01  4.439940532554E-01
H56 -2.544110886225E-03 -3.608284441269E-01 -4.439940532554E-01
H57  3.392513367820E-01 -4.707200683871E-01  4.667230302591E-01
H58 -3.392513367820E-01  4.707200683871E-01 -4.667230302591E-01
H59 -4.074407569408E-01  4.988755403613E-01  3.620248577361E-01
H60  4.074407569408E-01 -4.988755403613E-01 -3.620248577361E-01
H61  1.420539105521E-02  3.356707726567E-02  1.794538065850E-01
H62 -1.420539105521E-02 -3.356707726567E-02 -1.794538065850E-01
H63 -3.077222049614E-01  3.634407741915E-01  2.268401583171E-01
H64  3.077222049614E-01 -3.634407741915E-01 -2.268401583171E-01
H65  1.114074034231E-01 -9.787814376437E-02  4.375669336444E-02
H66 -1.114074034231E-01  9.787814376437E-02 -4.375669336444E-02
H67 -2.091909929904E-01  2.301703317841E-01  9.161241092735E-02
H68  2.091909929904E-01 -2.301703317841E-01 -9.161241092735E-02
H69  4.423178116636E-01 -8.582204682280E-02  2.770535056951E-01
H70 -4.423178116636E-01  8.582204682280E-02 -2.770535056951E-01
H71 -4.839880785022E-01 -1.069409337253E-02  4.239869438549E-01
H72  4.839880785022E-01  1.069409337253E-02 -4.239869438549E-01
H73 -1.726786845292E-01 -9.559816052191E-02  4.860289352370E-01
H74  1.726786845292E-01  9.559816052191E-02 -4.860289352370E-01
H75  6.882942610307E-02 -2.489263058784E-01  3.997382051492E-01
H76 -6.882942610307E-02  2.489263058784E-01 -3.997382051492E-01
H77 -4.608942824964E-01 -2.211414170666E-01  1.412958193881E-01
H78  4.608942824964E-01  2.211414170666E-01 -1.412958193881E-01
H79  1.664827942313E-01 -3.813798423112E-01  2.645847539702E-01
H80 -1.664827942313E-01  3.813798423112E-01 -2.645847539702E-01
H81 -3.629972708585E-01 -3.539335207426E-01  5.928279744931E-03
H82  3.629972708585E-01  3.539335207426E-01 -5.928279744931E-03
H83  2.647818724302E-01  4.862726409548E-01  1.293007786867E-01
H84 -2.647818724302E-01 -4.862726409548E-01 -1.293007786867E-01


#===END

data_OPT_STEP_45

_symmetry_space_group_name_H-M 'P 1'
_cell_length_a      6.61265227
_cell_length_b      8.22365663
_cell_length_c     16.77575896
_cell_angle_alpha  100.829785
_cell_angle_beta   91.460716
_cell_angle_gamma   95.350069

loop_
_atom_site_label
_atom_site_fract_x
_atom_site_fract_y
_atom_site_fract_z
C1  6.411323189096E-02  2.366465542997E-01  3.257284345164E-01
C2 -6.411323189096E-02 -2.366465542997E-01 -3.257284345164E-01
C3  1.115518251951E-01  3.459757849118E-01  3.965645846521E-01
C4 -1.115518251951E-01 -3.459757849118E-01 -3.965645846521E-01
C5  3.052237494359E-01  4.422200530370E-01  4.098229701906E-01
C6 -3.052237494359E-01 -4.422200530370E-01 -4.098229701906E-01
C7  4.461534530340E-01  4.254839054087E-01  3.519787624167E-01
C8 -4.461534530340E-01 -4.254839054087E-01 -3.519787624167E-01
C9  4.042528044508E-01  3.112805016460E-01  2.762496147406E-01
C10 -4.042528044508E-01 -3.112805016460E-01 -2.762496147406E-01
C11  2.068544768496E-01  2.147556171826E-01  2.625496518508E-01
C12 -2.068544768496E-01 -2.147556171826E-01 -2.625496518508E-01
C13  1.620314385284E-01  1.051137629054E-01  1.897195207962E-01
C14 -1.620314385284E-01 -1.051137629054E-01 -1.897195207962E-01
C15  3.036946546425E-01  8.365275764604E-02  1.277684559513E-01
C16 -3.036946546425E-01 -8.365275764604E-02 -1.277684559513E-01
C17 -4.981522589717E-01  1.795418556323E-01  1.417083451015E-01
C18  4.981522589717E-01 -1.795418556323E-01 -1.417083451015E-01
C19 -4.551607087800E-01  2.915135971063E-01  2.164494932687E-01
C20  4.551607087800E-01 -2.915135971063E-01 -2.164494932687E-01
C21  2.593449967165E-01 -2.662399392519E-02  5.416405652584E-02
C22 -2.593449967165E-01  2.662399392519E-02 -5.416405652584E-02
C23  4.007773902215E-01 -4.786947314133E-02 -7.005034761241E-03
C24 -4.007773902215E-01  4.786947314133E-02  7.005034761241E-03
C25 -3.570071010669E-01  1.588116861288E-01  8.116548380529E-02
C26  3.570071010669E-01 -1.588116861288E-01 -8.116548380529E-02
C27 -4.216148574128E-01 -1.220069295101E-01  3.038133900313E-01
C28  4.216148574128E-01  1.220069295101E-01 -3.038133900313E-01
C29 -3.807847628742E-01 -8.141406240460E-02  3.853300138776E-01
C30  3.807847628742E-01  8.141406240460E-02 -3.853300138776E-01
C31 -2.016446504173E-01 -1.287911097191E-01  4.208292936977E-01
C32  2.016446504173E-01  1.287911097191E-01 -4.208292936977E-01
C33 -6.791246432917E-02 -2.140055449432E-01  3.733774991715E-01
C34  6.791246432917E-02  2.140055449432E-01 -3.733774991715E-01
C35 -1.033443868341E-01 -2.597140520936E-01  2.870181530691E-01
C36  1.033443868341E-01  2.597140520936E-01 -2.870181530691E-01
C37 -2.862103545610E-01 -2.129563397266E-01  2.511837744254E-01
C38  2.862103545610E-01  2.129563397266E-01 -2.511837744254E-01
C39 -3.240853978278E-01 -2.559781015945E-01  1.680985682968E-01
C40  3.240853978278E-01  2.559781015945E-01 -1.680985682968E-01
C41 -1.891791428328E-01 -3.448870635725E-01  1.166275812869E-01
C42  1.891791428328E-01  3.448870635725E-01 -1.166275812869E-01
C43 -5.946440763132E-03 -3.915868923696E-01  1.525609087890E-01
C44  5.946440763132E-03  3.915868923696E-01 -1.525609087890E-01
C45  3.024449502984E-02 -3.466598415859E-01  2.376333141813E-01
C46 -3.024449502984E-02  3.466598415859E-01 -2.376333141813E-01
C47 -2.263033887761E-01 -3.885817508353E-01  3.278722514618E-02
C48  2.263033887761E-01  3.885817508353E-01 -3.278722514618E-02
C49 -9.168715845625E-02 -4.766406077454E-01 -1.798755908316E-02
C50  9.168715845625E-02  4.766406077454E-01  1.798755908316E-02
C51  1.282653168399E-01 -4.791385780584E-01  1.023995916746E-01
C52 -1.282653168399E-01  4.791385780584E-01 -1.023995916746E-01
H53 -8.282748514887E-02  1.640294289096E-01  3.157539021100E-01
H54  8.282748514887E-02 -1.640294289096E-01 -3.157539021100E-01
H55  2.817149507337E-03  3.607260032208E-01  4.439601448062E-01
H56 -2.817149507337E-03 -3.607260032208E-01 -4.439601448062E-01
H57  3.394807340606E-01 -4.708073919580E-01  4.666888358749E-01
H58 -3.394807340606E-01  4.708073919580E-01 -4.666888358749E-01
H59 -4.072646101352E-01  4.987594877357E-01  3.620178194709E-01
H60  4.072646101352E-01 -4.987594877357E-01 -3.620178194709E-01
H61  1.435800582635E-02  3.348423892240E-02  1.794379288098E-01
H62 -1.435800582635E-02 -3.348423892240E-02 -1.794379288098E-01
H63 -3.076056130017E-01  3.633411041599E-01  2.268488257728E-01
H64  3.076056130017E-01 -3.633411041599E-01 -2.268488257728E-01
H65  1.114622853090E-01 -9.788298674133E-02  4.373999193444E-02
H66 -1.114622853090E-01  9.788298674133E-02 -4.373999193444E-02
H67 -2.091447447318E-01  2.300910181289E-01  9.163237042047E-02
H68  2.091447447318E-01 -2.300910181289E-01 -9.163237042047E-02
H69  4.425305377690E-01 -8.598049413190E-02  2.770911215402E-01
H70 -4.425305377690E-01  8.598049413190E-02 -2.770911215402E-01
H71 -4.836660316315E-01 -1.092231119439E-02  4.240118212295E-01
H72  4.836660316315E-01  1.092231119439E-02 -4.240118212295E-01
H73 -1.723154580799E-01 -9.583623461923E-02  4.860190231533E-01
H74  1.723154580799E-01  9.583623461923E-02 -4.860190231533E-01
H75  6.914217804941E-02 -2.490939154205E-01  3.997086253543E-01
H76 -6.914217804941E-02  2.490939154205E-01 -3.997086253543E-01
H77 -4.607527986407E-01 -2.211864240724E-01  1.413281137161E-01
H78  4.607527986407E-01  2.211864240724E-01 -1.413281137161E-01
H79  1.666911582951E-01 -3.814785909129E-01  2.645531759254E-01
H80 -1.666911582951E-01  3.814785909129E-01 -2.645531759254E-01
H81 -3.630008440371E-01 -3.539709108411E-01  5.962152745731E-03
H82  3.630008440371E-01  3.539709108411E-01 -5.962152745731E-03
H83  2.648854770647E-01  4.862345204297E-01  1.292695180289E-01
H84 -2.648854770647E-01 -4.862345204297E-01 -1.292695180289E-01


#===END

data_OPT_STEP_46

_symmetry_space_group_name_H-M 'P 1'
_cell_length_a      6.61352469
_cell_length_b      8.22222798
_cell_length_c     16.77675770
_cell_angle_alpha  100.818073
_cell_angle_beta   91.470902
_cell_angle_gamma   95.351003

loop_
_atom_site_label
_atom_site_fract_x
_atom_site_fract_y
_atom_site_fract_z
C1  6.432264658782E-02  2.365556011120E-01  3.257020989301E-01
C2 -6.432264658782E-02 -2.365556011120E-01 -3.257020989301E-01
C3  1.117831842224E-01  3.458842615990E-01  3.965296243282E-01
C4 -1.117831842224E-01 -3.458842615990E-01 -3.965296243282E-01
C5  3.054454810637E-01  4.421246989623E-01  4.097895954722E-01
C6 -3.054454810637E-01 -4.421246989623E-01 -4.097895954722E-01
C7  4.463448705138E-01  4.253851076324E-01  3.519557770132E-01
C8 -4.463448705138E-01 -4.253851076324E-01 -3.519557770132E-01
C9  4.044178457755E-01  3.111860290117E-01  2.762351166787E-01
C10 -4.044178457755E-01 -3.111860290117E-01 -2.762351166787E-01
C11  2.070264404971E-01  2.146687300689E-01  2.625325110324E-01
C12 -2.070264404971E-01 -2.146687300689E-01 -2.625325110324E-01
C13  1.621633921868E-01  1.050592318041E-01  1.897036199790E-01
C14 -1.621633921868E-01 -1.050592318041E-01 -1.897036199790E-01
C15  3.037848956635E-01  8.360992964766E-02  1.277598301969E-01
C16 -3.037848956635E-01 -8.360992964766E-02 -1.277598301969E-01
C17 -4.980624189993E-01  1.794785982907E-01  1.417052781215E-01
C18  4.980624189993E-01 -1.794785982907E-01 -1.417052781215E-01
C19 -4.550339294478E-01  2.914278823262E-01  2.164427254573E-01
C20  4.550339294478E-01 -2.914278823262E-01 -2.164427254573E-01
C21  2.593908824292E-01 -2.663044406372E-02  5.415556815378E-02
C22 -2.593908824292E-01  2.663044406372E-02 -5.415556815378E-02
C23  4.007776713593E-01 -4.785919437502E-02 -7.007810382526E-03
C24 -4.007776713593E-01  4.785919437502E-02  7.007810382526E-03
C25 -3.569644307292E-01  1.587683223937E-01  8.116723138160E-02
C26  3.569644307292E-01 -1.587683223937E-01 -8.116723138160E-02
C27 -4.213686330663E-01 -1.221557345685E-01  3.038278727910E-01
C28  4.213686330663E-01  1.221557345685E-01 -3.038278727910E-01
C29 -3.805003136183E-01 -8.162712271334E-02  3.853374711643E-01
C30  3.805003136183E-01  8.162712271334E-02 -3.853374711643E-01
C31 -2.013446011429E-01 -1.290189364796E-01  4.208191291626E-01
C32  2.013446011429E-01  1.290189364796E-01 -4.208191291626E-01
C33 -6.764126154725E-02 -2.141889855033E-01  3.733579001269E-01
C34  6.764126154725E-02  2.141889855033E-01 -3.733579001269E-01
C35 -1.031229652381E-01 -2.598399187471E-01  2.870063135483E-01
C36  1.031229652381E-01  2.598399187471E-01 -2.870063135483E-01
C37 -2.860031914470E-01 -2.130679757089E-01  2.511895666719E-01
C38  2.860031914470E-01  2.130679757089E-01 -2.511895666719E-01
C39 -3.239288392885E-01 -2.560415032548E-01  1.681121544857E-01
C40  3.239288392885E-01  2.560415032548E-01 -1.681121544857E-01
C41 -1.890711076372E-01 -3.449276121586E-01  1.166337407109E-01
C42  1.890711076372E-01  3.449276121586E-01 -1.166337407109E-01
C43 -5.820657980549E-03 -3.916345569680E-01  1.525491742539E-01
C44  5.820657980549E-03  3.916345569680E-01 -1.525491742539E-01
C45  3.043196473483E-02 -3.467434404701E-01  2.376123904491E-01
C46 -3.043196473483E-02  3.467434404701E-01 -2.376123904491E-01
C47 -2.262504480768E-01 -3.885811383162E-01  3.280185872742E-02
C48  2.262504480768E-01  3.885811383162E-01 -3.280185872742E-02
C49 -9.169114125940E-02 -4.766302555742E-01 -1.797915087381E-02
C50  9.169114125940E-02  4.766302555742E-01  1.797915087381E-02
C51  1.283348963150E-01 -4.791761755933E-01  1.023815407405E-01
C52 -1.283348963150E-01  4.791761755933E-01 -1.023815407405E-01
H53 -8.260815358856E-02  1.639357453649E-01  3.157276024102E-01
H54  8.260815358856E-02 -1.639357453649E-01 -3.157276024102E-01
H55  3.081961126706E-03  3.606354671724E-01  4.439202812209E-01
H56 -3.081961126706E-03 -3.606354671724E-01 -4.439202812209E-01
H57  3.397127425938E-01 -4.708883041607E-01  4.666446851806E-01
H58 -3.397127425938E-01  4.708883041607E-01 -4.666446851806E-01
H59 -4.070806745875E-01  4.986588649062E-01  3.619958325353E-01
H60  4.070806745875E-01 -4.986588649062E-01 -3.619958325353E-01
H61  1.449135264144E-02  3.344268903063E-02  1.794181327393E-01
H62 -1.449135264144E-02 -3.344268903063E-02 -1.794181327393E-01
H63 -3.074843432679E-01  3.632536457919E-01  2.268434168568E-01
H64  3.074843432679E-01 -3.632536457919E-01 -2.268434168568E-01
H65  1.115050101689E-01 -9.786866800395E-02  4.372606170926E-02
H66 -1.115050101689E-01  9.786866800395E-02 -4.372606170926E-02
H67 -2.091034283501E-01  2.300366361062E-01  9.163708045117E-02
H68  2.091034283501E-01 -2.300366361062E-01 -9.163708045117E-02
H69  4.427656998466E-01 -8.611914668334E-02  2.771189840467E-01
H70 -4.427656998466E-01  8.611914668334E-02 -2.771189840467E-01
H71 -4.833589035489E-01 -1.116865356446E-02  4.240272294297E-01
H72  4.833589035489E-01  1.116865356446E-02 -4.240272294297E-01
H73 -1.719800266351E-01 -9.610249722305E-02  4.860025519562E-01
H74  1.719800266351E-01  9.610249722305E-02 -4.860025519562E-01
H75  6.942883050967E-02 -2.492799007496E-01  3.996747541132E-01
H76 -6.942883050967E-02  2.492799007496E-01 -3.996747541132E-01
H77 -4.605963642433E-01 -2.212242560361E-01  1.413540037669E-01
H78  4.605963642433E-01  2.212242560361E-01 -1.413540037669E-01
H79  1.668884596609E-01 -3.815725829589E-01  2.645186090251E-01
H80 -1.668884596609E-01  3.815725829589E-01 -2.645186090251E-01
H81 -3.629583418064E-01 -3.539611537012E-01  5.989728270763E-03
H82  3.629583418064E-01  3.539611537012E-01 -5.989728270763E-03
H83  2.649651284457E-01  4.861870138374E-01  1.292386453973E-01
H84 -2.649651284457E-01 -4.861870138374E-01 -1.292386453973E-01


#===END

data_OPT_STEP_47

_symmetry_space_group_name_H-M 'P 1'
_cell_length_a      6.61426240
_cell_length_b      8.22123987
_cell_length_c     16.77751352
_cell_angle_alpha  100.806024
_cell_angle_beta   91.485275
_cell_angle_gamma   95.349229

loop_
_atom_site_label
_atom_site_fract_x
_atom_site_fract_y
_atom_site_fract_z
C1  6.450011106819E-02  2.364710276977E-01  3.256636511923E-01
C2 -6.450011106819E-02 -2.364710276977E-01 -3.256636511923E-01
C3  1.119880366051E-01  3.457753609561E-01  3.964887886584E-01
C4 -1.119880366051E-01 -3.457753609561E-01 -3.964887886584E-01
C5  3.056412314346E-01  4.420082352278E-01  4.097553149557E-01
C6 -3.056412314346E-01 -4.420082352278E-01 -4.097553149557E-01
C7  4.465093356339E-01  4.252737142574E-01  3.519329050500E-01
C8 -4.465093356339E-01 -4.252737142574E-01 -3.519329050500E-01
C9  4.045558346544E-01  3.110925043516E-01  2.762169811902E-01
C10 -4.045558346544E-01 -3.110925043516E-01 -2.762169811902E-01
C11  2.071679701083E-01  2.145930111949E-01  2.625052838590E-01
C12 -2.071679701083E-01 -2.145930111949E-01 -2.625052838590E-01
C13  1.622861099625E-01  1.049878223148E-01  1.896834401752E-01
C14 -1.622861099625E-01 -1.049878223148E-01 -1.896834401752E-01
C15  3.038708550310E-01  8.355153730125E-02  1.277500967522E-01
C16 -3.038708550310E-01 -8.355153730125E-02 -1.277500967522E-01
C17 -4.979893590120E-01  1.794196379384E-01  1.417004991515E-01
C18  4.979893590120E-01 -1.794196379384E-01 -1.417004991515E-01
C19 -4.549279458414E-01  2.913406472911E-01  2.164362254166E-01
C20  4.549279458414E-01 -2.913406472911E-01 -2.164362254166E-01
C21  2.594438524075E-01 -2.665988772153E-02  5.414713684880E-02
C22 -2.594438524075E-01  2.665988772153E-02 -5.414713684880E-02
C23  4.007807683167E-01 -4.785258675680E-02 -7.011840409736E-03
C24 -4.007807683167E-01  4.785258675680E-02  7.011840409736E-03
C25 -3.569306556680E-01  1.587259188406E-01  8.117162088569E-02
C26  3.569306556680E-01 -1.587259188406E-01 -8.117162088569E-02
C27 -4.211113935718E-01 -1.223057109339E-01  3.038369519293E-01
C28  4.211113935718E-01  1.223057109339E-01 -3.038369519293E-01
C29 -3.801892664533E-01 -8.182617332271E-02  3.853399811798E-01
C30  3.801892664533E-01  8.182617332271E-02 -3.853399811798E-01
C31 -2.009974629329E-01 -1.292095143617E-01  4.208068151522E-01
C32  2.009974629329E-01  1.292095143617E-01 -4.208068151522E-01
C33 -6.731715031074E-02 -2.143280548041E-01  3.733383897771E-01
C34  6.731715031074E-02  2.143280548041E-01 -3.733383897771E-01
C35 -1.028724551769E-01 -2.599502298469E-01  2.869950549046E-01
C36  1.028724551769E-01  2.599502298469E-01 -2.869950549046E-01
C37 -2.857698826151E-01 -2.131588162543E-01  2.511912559883E-01
C38  2.857698826151E-01  2.131588162543E-01 -2.511912559883E-01
C39 -3.237678535785E-01 -2.561062332785E-01  1.681217298689E-01
C40  3.237678535785E-01  2.561062332785E-01 -1.681217298689E-01
C41 -1.889649572073E-01 -3.449779000235E-01  1.166384398848E-01
C42  1.889649572073E-01  3.449779000235E-01 -1.166384398848E-01
C43 -5.700243349280E-03 -3.917071550305E-01  1.525410387780E-01
C44  5.700243349280E-03  3.917071550305E-01 -1.525410387780E-01
C45  3.062368711379E-02 -3.468481103797E-01  2.375965006155E-01
C46 -3.062368711379E-02  3.468481103797E-01 -2.375965006155E-01
C47 -2.262151187943E-01 -3.886021082297E-01  3.281427082787E-02
C48  2.262151187943E-01  3.886021082297E-01 -3.281427082787E-02
C49 -9.170850130459E-02 -4.766340301393E-01 -1.797181929817E-02
C50  9.170850130459E-02  4.766340301393E-01  1.797181929817E-02
C51  1.284137759396E-01 -4.792165853514E-01  1.023673322615E-01
C52 -1.284137759396E-01  4.792165853514E-01 -1.023673322615E-01
H53 -8.243098128821E-02  1.638683326782E-01  3.156821086627E-01
H54  8.243098128821E-02 -1.638683326782E-01 -3.156821086627E-01
H55  3.309978959777E-03  3.605258055657E-01  4.438697269880E-01
H56 -3.309978959777E-03 -3.605258055657E-01 -4.438697269880E-01
H57  3.399356154083E-01 -4.710165113865E-01  4.666055929749E-01
H58 -3.399356154083E-01  4.710165113865E-01 -4.666055929749E-01
H59 -4.069229987884E-01  4.985428359777E-01  3.619775316316E-01
H60  4.069229987884E-01 -4.985428359777E-01 -3.619775316316E-01
H61  1.462045645206E-02  3.337625936513E-02  1.793931945249E-01
H62 -1.462045645206E-02 -3.337625936513E-02 -1.793931945249E-01
H63 -3.073781126020E-01  3.631517921235E-01  2.268439478637E-01
H64  3.073781126020E-01 -3.631517921235E-01 -2.268439478637E-01
H65  1.115674942552E-01 -9.789856217807E-02  4.371492172991E-02
H66 -1.115674942552E-01  9.789856217807E-02 -4.371492172991E-02
H67 -2.090704970621E-01  2.299786386445E-01  9.164813028393E-02
H68  2.090704970621E-01 -2.299786386445E-01 -9.164813028393E-02
H69  4.430081403381E-01 -8.625762670080E-02  2.771386382639E-01
H70 -4.430081403381E-01  8.625762670080E-02 -2.771386382639E-01
H71 -4.830454806324E-01 -1.143166992040E-02  4.240382836393E-01
H72  4.830454806324E-01  1.143166992040E-02 -4.240382836393E-01
H73 -1.716087528388E-01 -9.635488912320E-02  4.859864867665E-01
H74  1.716087528388E-01  9.635488912320E-02 -4.859864867665E-01
H75  6.976749676827E-02 -2.494244413724E-01  3.996462024771E-01
H76 -6.976749676827E-02  2.494244413724E-01 -3.996462024771E-01
H77 -4.604641371690E-01 -2.212974097347E-01  1.413765914284E-01
H78  4.604641371690E-01  2.212974097347E-01 -1.413765914284E-01
H79  1.670980936153E-01 -3.816845986721E-01  2.644906718604E-01
H80 -1.670980936153E-01  3.816845986721E-01 -2.644906718604E-01
H81 -3.629306860604E-01 -3.539591112545E-01  6.012820025010E-03
H82  3.629306860604E-01  3.539591112545E-01 -6.012820025010E-03
H83  2.650559177432E-01  4.861292039191E-01  1.292136501877E-01
H84 -2.650559177432E-01 -4.861292039191E-01 -1.292136501877E-01


#===END

data_OPT_STEP_48

_symmetry_space_group_name_H-M 'P 1'
_cell_length_a      6.61511269
_cell_length_b      8.22000247
_cell_length_c     16.77903777
_cell_angle_alpha  100.796037
_cell_angle_beta   91.495735
_cell_angle_gamma   95.349221

loop_
_atom_site_label
_atom_site_fract_x
_atom_site_fract_y
_atom_site_fract_z
C1  6.470173252334E-02  2.363786037359E-01  3.256308819205E-01
C2 -6.470173252334E-02 -2.363786037359E-01 -3.256308819205E-01
C3  1.122068655128E-01  3.456849916278E-01  3.964465956796E-01
C4 -1.122068655128E-01 -3.456849916278E-01 -3.964465956796E-01
C5  3.058562317403E-01  4.419036596271E-01  4.097170970702E-01
C6 -3.058562317403E-01 -4.419036596271E-01 -4.097170970702E-01
C7  4.466925787747E-01  4.251661320859E-01  3.519056869927E-01
C8 -4.466925787747E-01 -4.251661320859E-01 -3.519056869927E-01
C9  4.047104759461E-01  3.109979509195E-01  2.761972954310E-01
C10 -4.047104759461E-01 -3.109979509195E-01 -2.761972954310E-01
C11  2.073341948674E-01  2.145011218293E-01  2.624837284151E-01
C12 -2.073341948674E-01 -2.145011218293E-01 -2.624837284151E-01
C13  1.624179654978E-01  1.049233601715E-01  1.896650420236E-01
C14 -1.624179654978E-01 -1.049233601715E-01 -1.896650420236E-01
C15  3.039596343991E-01  8.350337865346E-02  1.277395619523E-01
C16 -3.039596343991E-01 -8.350337865346E-02 -1.277395619523E-01
C17 -4.979085962559E-01  1.793607330501E-01  1.416939250988E-01
C18  4.979085962559E-01 -1.793607330501E-01 -1.416939250988E-01
C19 -4.548151790068E-01  2.912626841955E-01  2.164241227156E-01
C20  4.548151790068E-01 -2.912626841955E-01 -2.164241227156E-01
C21  2.594973292326E-01 -2.668016046835E-02  5.413972371549E-02
C22 -2.594973292326E-01  2.668016046835E-02 -5.413972371549E-02
C23  4.007879808704E-01 -4.785264571084E-02 -7.012425778856E-03
C24 -4.007879808704E-01  4.785264571084E-02  7.012425778856E-03
C25 -3.569013231677E-01  1.586971398660E-01  8.116916299153E-02
C26  3.569013231677E-01 -1.586971398660E-01 -8.116916299153E-02
C27 -4.208691563923E-01 -1.224595416539E-01  3.038457343899E-01
C28  4.208691563923E-01  1.224595416539E-01 -3.038457343899E-01
C29 -3.799110568331E-01 -8.204831602539E-02  3.853400244853E-01
C30  3.799110568331E-01  8.204831602539E-02 -3.853400244853E-01
C31 -2.007100906816E-01 -1.294508737885E-01  4.207881697424E-01
C32  2.007100906816E-01  1.294508737885E-01 -4.207881697424E-01
C33 -6.705717959155E-02 -2.145242246052E-01  3.733115119017E-01
C34  6.705717959155E-02  2.145242246052E-01 -3.733115119017E-01
C35 -1.026468722223E-01 -2.600708786634E-01  2.869767657491E-01
C36  1.026468722223E-01  2.600708786634E-01 -2.869767657491E-01
C37 -2.855612839369E-01 -2.132687032360E-01  2.511922716444E-01
C38  2.855612839369E-01  2.132687032360E-01 -2.511922716444E-01
C39 -3.236033610206E-01 -2.561584317401E-01  1.681321504690E-01
C40  3.236033610206E-01  2.561584317401E-01 -1.681321504690E-01
C41 -1.888480075637E-01 -3.450053951849E-01  1.166418892421E-01
C42  1.888480075637E-01  3.450053951849E-01 -1.166418892421E-01
C43 -5.562740109122E-03 -3.917388334989E-01  1.525249096474E-01
C44  5.562740109122E-03  3.917388334989E-01 -1.525249096474E-01
C45  3.082100629759E-02 -3.469186466208E-01  2.375692110281E-01
C46 -3.082100629759E-02  3.469186466208E-01 -2.375692110281E-01
C47 -2.261615764806E-01 -3.885988376609E-01  3.282915413314E-02
C48  2.261615764806E-01  3.885988376609E-01 -3.282915413314E-02
C49 -9.171104448890E-02 -4.766202132295E-01 -1.796287117106E-02
C50  9.171104448890E-02  4.766202132295E-01  1.796287117106E-02
C51  1.284918758819E-01 -4.792447590302E-01  1.023457401696E-01
C52 -1.284918758819E-01  4.792447590302E-01 -1.023457401696E-01
H53 -8.222510879232E-02  1.637815472830E-01  3.156470890531E-01
H54  8.222510879232E-02 -1.637815472830E-01 -3.156470890531E-01
H55  3.542988577357E-03  3.604402318776E-01  4.438148261911E-01
H56 -3.542988577357E-03 -3.604402318776E-01 -4.438148261911E-01
H57  3.401938572950E-01 -4.711430244501E-01  4.665634169106E-01
H58 -3.401938572950E-01  4.711430244501E-01 -4.665634169106E-01
H59 -4.067360493330E-01  4.984134325997E-01  3.619570832503E-01
H60  4.067360493330E-01 -4.984134325997E-01 -3.619570832503E-01
H61  1.475514971260E-02  3.332440720020E-02  1.793705602760E-01
H62 -1.475514971260E-02 -3.332440720020E-02 -1.793705602760E-01
H63 -3.072746939272E-01  3.630750465003E-01  2.268330460379E-01
H64  3.072746939272E-01 -3.630750465003E-01 -2.268330460379E-01
H65  1.116289592683E-01 -9.791424878148E-02  4.370568782444E-02
H66 -1.116289592683E-01  9.791424878148E-02 -4.370568782444E-02
H67 -2.090532634842E-01  2.299534757148E-01  9.164553424265E-02
H68  2.090532634842E-01 -2.299534757148E-01 -9.164553424265E-02
H69  4.432349053658E-01 -8.640643564998E-02  2.771622798403E-01
H70 -4.432349053658E-01  8.640643564998E-02 -2.771622798403E-01
H71 -4.827632375757E-01 -1.172029890631E-02  4.240490551598E-01
H72  4.827632375757E-01  1.172029890631E-02 -4.240490551598E-01
H73 -1.713014924667E-01 -9.665966248970E-02  4.859614005478E-01
H74  1.713014924667E-01  9.665966248970E-02 -4.859614005478E-01
H75  7.003845439595E-02 -2.496194240392E-01  3.996091981718E-01
H76 -7.003845439595E-02  2.496194240392E-01 -3.996091981718E-01
H77 -4.603081235055E-01 -2.213333759427E-01  1.414025305940E-01
H78  4.603081235055E-01  2.213333759427E-01 -1.414025305940E-01
H79  1.673084215801E-01 -3.817637841748E-01  2.644475278034E-01
H80 -1.673084215801E-01  3.817637841748E-01 -2.644475278034E-01
H81 -3.628881167390E-01 -3.539430281707E-01  6.043406493484E-03
H82  3.628881167390E-01  3.539430281707E-01 -6.043406493484E-03
H83  2.651419250487E-01  4.860829712493E-01  1.291771507019E-01
H84 -2.651419250487E-01 -4.860829712493E-01 -1.291771507019E-01


#===END

data_OPT_STEP_49

_symmetry_space_group_name_H-M 'P 1'
_cell_length_a      6.61554351
_cell_length_b      8.21922315
_cell_length_c     16.78053836
_cell_angle_alpha  100.782850
_cell_angle_beta   91.504903
_cell_angle_gamma   95.349254

loop_
_atom_site_label
_atom_site_fract_x
_atom_site_fract_y
_atom_site_fract_z
C1  6.488290265961E-02  2.362689657977E-01  3.255979489303E-01
C2 -6.488290265961E-02 -2.362689657977E-01 -3.255979489303E-01
C3  1.124119441654E-01  3.455649028176E-01  3.964011125722E-01
C4 -1.124119441654E-01 -3.455649028176E-01 -3.964011125722E-01
C5  3.060715654610E-01  4.417565460293E-01  4.096719182758E-01
C6 -3.060715654610E-01 -4.417565460293E-01 -4.096719182758E-01
C7  4.468873634663E-01  4.250120871445E-01  3.518721623179E-01
C8 -4.468873634663E-01 -4.250120871445E-01 -3.518721623179E-01
C9  4.048725792000E-01  3.108669692903E-01  2.761744485907E-01
C10 -4.048725792000E-01 -3.108669692903E-01 -2.761744485907E-01
C11  2.074908989086E-01  2.143888095374E-01  2.624621968718E-01
C12 -2.074908989086E-01 -2.143888095374E-01 -2.624621968718E-01
C13  1.625390782895E-01  1.048405698643E-01  1.896519625756E-01
C14 -1.625390782895E-01 -1.048405698643E-01 -1.896519625756E-01
C15  3.040446315177E-01  8.344057007457E-02  1.277324227720E-01
C16 -3.040446315177E-01 -8.344057007457E-02 -1.277324227720E-01
C17 -4.978273902361E-01  1.792950134171E-01  1.416815896577E-01
C18  4.978273902361E-01 -1.792950134171E-01 -1.416815896577E-01
C19 -4.546875527580E-01  2.911510121472E-01  2.164075037657E-01
C20  4.546875527580E-01 -2.911510121472E-01 -2.164075037657E-01
C21  2.595413458375E-01 -2.670626510171E-02  5.413881959275E-02
C22 -2.595413458375E-01  2.670626510171E-02 -5.413881959275E-02
C23  4.007883451076E-01 -4.784789116845E-02 -7.010630022360E-03
C24 -4.007883451076E-01  4.784789116845E-02  7.010630022360E-03
C25 -3.568611723303E-01  1.586582746986E-01  8.116054275212E-02
C26  3.568611723303E-01 -1.586582746986E-01 -8.116054275212E-02
C27 -4.206435656249E-01 -1.226205814310E-01  3.038501623727E-01
C28  4.206435656249E-01  1.226205814310E-01 -3.038501623727E-01
C29 -3.796478063637E-01 -8.228232132201E-02  3.853338889109E-01
C30  3.796478063637E-01  8.228232132201E-02 -3.853338889109E-01
C31 -2.004194921747E-01 -1.296945143185E-01  4.207620063719E-01
C32  2.004194921747E-01  1.296945143185E-01 -4.207620063719E-01
C33 -6.678657702423E-02 -2.147191888239E-01  3.732782279425E-01
C34  6.678657702423E-02  2.147191888239E-01 -3.732782279425E-01
C35 -1.024395987234E-01 -2.602249443934E-01  2.869566135028E-01
C36  1.024395987234E-01  2.602249443934E-01 -2.869566135028E-01
C37 -2.853664990143E-01 -2.133901340462E-01  2.511903714509E-01
C38  2.853664990143E-01  2.133901340462E-01 -2.511903714509E-01
C39 -3.234742099013E-01 -2.562462285986E-01  1.681426828739E-01
C40  3.234742099013E-01  2.562462285986E-01 -1.681426828739E-01
C41 -1.887626538779E-01 -3.450714608206E-01  1.166463355838E-01
C42  1.887626538779E-01  3.450714608206E-01 -1.166463355838E-01
C43 -5.461613344805E-03 -3.918310746979E-01  1.525109638975E-01
C44  5.461613344805E-03  3.918310746979E-01 -1.525109638975E-01
C45  3.098244733986E-02 -3.470560253206E-01  2.375432983471E-01
C46 -3.098244733986E-02  3.470560253206E-01 -2.375432983471E-01
C47 -2.261317758432E-01 -3.886157669868E-01  3.284479127187E-02
C48  2.261317758432E-01  3.886157669868E-01 -3.284479127187E-02
C49 -9.172672980581E-02 -4.766189374547E-01 -1.795298183138E-02
C50  9.172672980581E-02  4.766189374547E-01  1.795298183138E-02
C51  1.285589461667E-01 -4.793013377834E-01  1.023248737046E-01
C52 -1.285589461667E-01  4.793013377834E-01 -1.023248737046E-01
H53 -8.204749217450E-02  1.636844885124E-01  3.156138373829E-01
H54  8.204749217450E-02 -1.636844885124E-01 -3.156138373829E-01
H55  3.750841775051E-03  3.603365154718E-01  4.437541630294E-01
H56 -3.750841775051E-03 -3.603365154718E-01 -4.437541630294E-01
H57  3.404325355791E-01 -4.712839757393E-01  4.665047401588E-01
H58 -3.404325355791E-01  4.712839757393E-01 -4.665047401588E-01
H59 -4.065347822975E-01  4.982411889855E-01  3.619260859584E-01
H60  4.065347822975E-01 -4.982411889855E-01 -3.619260859584E-01
H61  1.487923160224E-02  3.324436448587E-02  1.793591915148E-01
H62 -1.487923160224E-02 -3.324436448587E-02 -1.793591915148E-01
H63 -3.071507040997E-01  3.629606420265E-01  2.268146898043E-01
H64  3.071507040997E-01 -3.629606420265E-01 -2.268146898043E-01
H65  1.116734792495E-01 -9.793123303781E-02  4.370549482857E-02
H66 -1.116734792495E-01  9.793123303781E-02 -4.370549482857E-02
H67 -2.090190596321E-01  2.299155327400E-01  9.163372574149E-02
H68  2.090190596321E-01 -2.299155327400E-01 -9.163372574149E-02
H69  4.434343551878E-01 -8.656964946863E-02  2.771814533606E-01
H70 -4.434343551878E-01  8.656964946863E-02 -2.771814533606E-01
H71 -4.824784725857E-01 -1.199229320024E-02  4.240509835101E-01
H72  4.824784725857E-01  1.199229320024E-02 -4.240509835101E-01
H73 -1.709592373940E-01 -9.692300639445E-02  4.859246076322E-01
H74  1.709592373940E-01  9.692300639445E-02 -4.859246076322E-01
H75  7.032164996399E-02 -2.498226193015E-01  3.995656629935E-01
H76 -7.032164996399E-02  2.498226193015E-01 -3.995656629935E-01
H77 -4.601770910489E-01 -2.213803094946E-01  1.414261214590E-01
H78  4.601770910489E-01  2.213803094946E-01 -1.414261214590E-01
H79  1.674774410468E-01 -3.819263069422E-01  2.644075218947E-01
H80 -1.674774410468E-01  3.819263069422E-01 -2.644075218947E-01
H81 -3.628808236085E-01 -3.539558122899E-01  6.074502223070E-03
H82  3.628808236085E-01  3.539558122899E-01 -6.074502223070E-03
H83  2.652267534978E-01  4.860155364572E-01  1.291415473622E-01
H84 -2.652267534978E-01 -4.860155364572E-01 -1.291415473622E-01


#===END

data_OPT_STEP_50

_symmetry_space_group_name_H-M 'P 1'
_cell_length_a      6.61605324
_cell_length_b      8.21840160
_cell_length_c     16.78229459
_cell_angle_alpha  100.771259
_cell_angle_beta   91.515861
_cell_angle_gamma   95.348775

loop_
_atom_site_label
_atom_site_fract_x
_atom_site_fract_y
_atom_site_fract_z
C1  6.504279063317E-02  2.361702434426E-01  3.255510678718E-01
C2 -6.504279063317E-02 -2.361702434426E-01 -3.255510678718E-01
C3  1.125978091121E-01  3.454403687004E-01  3.963470046777E-01
C4 -1.125978091121E-01 -3.454403687004E-01 -3.963470046777E-01
C5  3.062636725097E-01  4.416084050210E-01  4.096226501740E-01
C6 -3.062636725097E-01 -4.416084050210E-01 -4.096226501740E-01
C7  4.470513416540E-01  4.248722898640E-01  3.518344012767E-01
C8 -4.470513416540E-01 -4.248722898640E-01 -3.518344012767E-01
C9  4.050036379428E-01  3.107603938271E-01  2.761435754496E-01
C10 -4.050036379428E-01 -3.107603938271E-01 -2.761435754496E-01
C11  2.076256807362E-01  2.142917491008E-01  2.624294435564E-01
C12 -2.076256807362E-01 -2.142917491008E-01 -2.624294435564E-01
C13  1.626505410224E-01  1.047609230926E-01  1.896290588880E-01
C14 -1.626505410224E-01 -1.047609230926E-01 -1.896290588880E-01
C15  3.041248707102E-01  8.337647566244E-02  1.277205571197E-01
C16 -3.041248707102E-01 -8.337647566244E-02 -1.277205571197E-01
C17 -4.977515013001E-01  1.792191245120E-01  1.416721555763E-01
C18  4.977515013001E-01 -1.792191245120E-01 -1.416721555763E-01
C19 -4.545852624380E-01  2.910561669667E-01  2.163884846662E-01
C20  4.545852624380E-01 -2.910561669667E-01 -2.163884846662E-01
C21  2.595900362585E-01 -2.673901801326E-02  5.413294870758E-02
C22 -2.595900362585E-01  2.673901801326E-02 -5.413294870758E-02
C23  4.007936951399E-01 -4.784686399030E-02 -7.010615414515E-03
C24 -4.007936951399E-01  4.784686399030E-02  7.010615414515E-03
C25 -3.568336569105E-01  1.586254947406E-01  8.115472018987E-02
C26  3.568336569105E-01 -1.586254947406E-01 -8.115472018987E-02
C27 -4.204097986432E-01 -1.227806242434E-01  3.038500115152E-01
C28  4.204097986432E-01  1.227806242434E-01 -3.038500115152E-01
C29 -3.793662166633E-01 -8.249948404761E-02  3.853217044766E-01
C30  3.793662166633E-01  8.249948404761E-02 -3.853217044766E-01
C31 -2.001237341094E-01 -1.299387357850E-01  4.207319472626E-01
C32  2.001237341094E-01  1.299387357850E-01 -4.207319472626E-01
C33 -6.651051152049E-02 -2.149138119486E-01  3.732424314130E-01
C34  6.651051152049E-02  2.149138119486E-01 -3.732424314130E-01
C35 -1.022116857463E-01 -2.603583566941E-01  2.869330090711E-01
C36  1.022116857463E-01  2.603583566941E-01 -2.869330090711E-01
C37 -2.851648507301E-01 -2.135120119100E-01  2.511857791772E-01
C38  2.851648507301E-01  2.135120119100E-01 -2.511857791772E-01
C39 -3.233205283550E-01 -2.563088056540E-01  1.681489281241E-01
C40  3.233205283550E-01  2.563088056540E-01 -1.681489281241E-01
C41 -1.886465994908E-01 -3.451003910437E-01  1.166468916339E-01
C42  1.886465994908E-01  3.451003910437E-01 -1.166468916339E-01
C43 -5.321535391702E-03 -3.918708250873E-01  1.524926517488E-01
C44  5.321535391702E-03  3.918708250873E-01 -1.524926517488E-01
C45  3.118494370656E-02 -3.471394078227E-01  2.375125202484E-01
C46 -3.118494370656E-02  3.471394078227E-01 -2.375125202484E-01
C47 -2.260818312597E-01 -3.886099255407E-01  3.285803919000E-02
C48  2.260818312597E-01  3.886099255407E-01 -3.285803919000E-02
C49 -9.173060543665E-02 -4.766026332654E-01 -1.794429503785E-02
C50  9.173060543665E-02  4.766026332654E-01  1.794429503785E-02
C51  1.286386299639E-01 -4.793393277464E-01  1.023023918793E-01
C52 -1.286386299639E-01  4.793393277464E-01 -1.023023918793E-01
H53 -8.189779431249E-02  1.636131441156E-01  3.155594648986E-01
H54  8.189779431249E-02 -1.636131441156E-01 -3.155594648986E-01
H55  3.925185327744E-03  3.602324691659E-01  4.436775576933E-01
H56 -3.925185327744E-03 -3.602324691659E-01 -4.436775576933E-01
H57  3.406773581807E-01 -4.714658754062E-01  4.664515376532E-01
H58 -3.406773581807E-01  4.714658754062E-01 -4.664515376532E-01
H59 -4.063669278424E-01  4.980861408415E-01  3.618945137910E-01
H60  4.063669278424E-01 -4.980861408415E-01 -3.618945137910E-01
H61  1.499141679390E-02  3.317693703049E-02  1.793316946684E-01
H62 -1.499141679390E-02 -3.317693703049E-02 -1.793316946684E-01
H63 -3.070542123524E-01  3.628605035772E-01  2.267979683316E-01
H64  3.070542123524E-01 -3.628605035772E-01 -2.267979683316E-01
H65  1.117311768134E-01 -9.796466098523E-02  4.369892425020E-02
H66 -1.117311768134E-01  9.796466098523E-02 -4.369892425020E-02
H67 -2.090025856451E-01  2.298861419344E-01  9.162779797431E-02
H68  2.090025856451E-01 -2.298861419344E-01 -9.162779797431E-02
H69  4.436582183439E-01 -8.670990241572E-02  2.771936508269E-01
H70 -4.436582183439E-01  8.670990241572E-02 -2.771936508269E-01
H71 -4.821827680066E-01 -1.226277906563E-02  4.240473299923E-01
H72  4.821827680066E-01  1.226277906563E-02 -4.240473299923E-01
H73 -1.706504403739E-01 -9.724346735566E-02  4.858871219963E-01
H74  1.706504403739E-01  9.724346735566E-02 -4.858871219963E-01
H75  7.060374244723E-02 -2.500283503938E-01  3.995229738934E-01
H76 -7.060374244723E-02  2.500283503938E-01 -3.995229738934E-01
H77 -4.600434021034E-01 -2.214351288201E-01  1.414477319505E-01
H78  4.600434021034E-01  2.214351288201E-01 -1.414477319505E-01
H79  1.676971745242E-01 -3.820199470734E-01  2.643612809141E-01
H80 -1.676971745242E-01  3.820199470734E-01 -2.643612809141E-01
H81 -3.628404385949E-01 -3.539260777200E-01  6.102581973434E-03
H82  3.628404385949E-01  3.539260777200E-01 -6.102581973434E-03
H83  2.653146057666E-01  4.859527615712E-01  1.291044907013E-01
H84 -2.653146057666E-01 -4.859527615712E-01 -1.291044907013E-01


#===END

data_OPT_STEP_51

_symmetry_space_group_name_H-M 'P 1'
_cell_length_a      6.61633782
_cell_length_b      8.21773517
_cell_length_c     16.78395234
_cell_angle_alpha  100.755396
_cell_angle_beta   91.518366
_cell_angle_gamma   95.350015

loop_
_atom_site_label
_atom_site_fract_x
_atom_site_fract_y
_atom_site_fract_z
C1  6.524525199138E-02  2.360585647593E-01  3.255354722495E-01
C2 -6.524525199138E-02 -2.360585647593E-01 -3.255354722495E-01
C3  1.128074545337E-01  3.453580233090E-01  3.963036385799E-01
C4 -1.128074545337E-01 -3.453580233090E-01 -3.963036385799E-01
C5  3.064890538765E-01  4.414950135333E-01  4.095666114329E-01
C6 -3.064890538765E-01 -4.414950135333E-01 -4.095666114329E-01
C7  4.472804262677E-01  4.247044909365E-01  3.517935628197E-01
C8 -4.472804262677E-01 -4.247044909365E-01 -3.517935628197E-01
C9  4.052001198650E-01  3.106050929859E-01  2.761215485115E-01
C10 -4.052001198650E-01 -3.106050929859E-01 -2.761215485115E-01
C11  2.078084710784E-01  2.141653204519E-01  2.624208587977E-01
C12 -2.078084710784E-01 -2.141653204519E-01 -2.624208587977E-01
C13  1.627831336705E-01  1.046808464914E-01  1.896312511567E-01
C14 -1.627831336705E-01 -1.046808464914E-01 -1.896312511567E-01
C15  3.042126936376E-01  8.332513319854E-02  1.277188647959E-01
C16 -3.042126936376E-01 -8.332513319854E-02 -1.277188647959E-01
C17 -4.976569897913E-01  1.791504000012E-01  1.416538449144E-01
C18  4.976569897913E-01 -1.791504000012E-01 -1.416538449144E-01
C19 -4.544311392659E-01  2.909281020063E-01  2.163630253475E-01
C20  4.544311392659E-01 -2.909281020063E-01 -2.163630253475E-01
C21  2.596260098225E-01 -2.674563457484E-02  5.414218648347E-02
C22 -2.596260098225E-01  2.674563457484E-02 -5.414218648347E-02
C23  4.007899970708E-01 -4.783742985687E-02 -7.002423815843E-03
C24 -4.007899970708E-01  4.783742985687E-02  7.002423815843E-03
C25 -3.567799943197E-01  1.585764257360E-01  8.113438231101E-02
C26  3.567799943197E-01 -1.585764257360E-01 -8.113438231101E-02
C27 -4.202254112604E-01 -1.229465094899E-01  3.038511497241E-01
C28  4.202254112604E-01  1.229465094899E-01 -3.038511497241E-01
C29 -3.791414558879E-01 -8.272215862176E-02  3.853082380461E-01
C30  3.791414558879E-01  8.272215862176E-02 -3.853082380461E-01
C31 -1.998814401238E-01 -1.301831155746E-01  4.206955568057E-01
C32  1.998814401238E-01  1.301831155746E-01 -4.206955568057E-01
C33 -6.629851566381E-02 -2.151342122699E-01  3.731998128080E-01
C34  6.629851566381E-02  2.151342122699E-01 -3.731998128080E-01
C35 -1.020415477115E-01 -2.605185055080E-01  2.869049858017E-01
C36  1.020415477115E-01  2.605185055080E-01 -2.869049858017E-01
C37 -2.850040073234E-01 -2.136376351859E-01  2.511798232384E-01
C38  2.850040073234E-01  2.136376351859E-01 -2.511798232384E-01
C39 -3.232142398788E-01 -2.563973879582E-01  1.681584825476E-01
C40  3.232142398788E-01  2.563973879582E-01 -1.681584825476E-01
C41 -1.885824996600E-01 -3.451752848496E-01  1.166506091612E-01
C42  1.885824996600E-01  3.451752848496E-01 -1.166506091612E-01
C43 -5.245867228520E-03 -3.919766612693E-01  1.524742686292E-01
C44  5.245867228520E-03  3.919766612693E-01 -1.524742686292E-01
C45  3.130572811008E-02 -3.472990513613E-01  2.374795263851E-01
C46 -3.130572811008E-02  3.472990513613E-01 -2.374795263851E-01
C47 -2.260638457485E-01 -3.886340629458E-01  3.287632412123E-02
C48  2.260638457485E-01  3.886340629458E-01 -3.287632412123E-02
C49 -9.174018799133E-02 -4.765927073846E-01 -1.793291797248E-02
C50  9.174018799133E-02  4.765927073846E-01  1.793291797248E-02
C51  1.286909180353E-01 -4.794051986304E-01  1.022766828102E-01
C52 -1.286909180353E-01  4.794051986304E-01 -1.022766828102E-01
H53 -8.169705005517E-02  1.635066112021E-01  3.155543079599E-01
H54  8.169705005517E-02 -1.635066112021E-01 -3.155543079599E-01
H55  4.135352230588E-03  3.601725983262E-01  4.436227415905E-01
H56 -4.135352230588E-03 -3.601725983262E-01 -4.436227415905E-01
H57  3.409232183732E-01 -4.715707310448E-01  4.663772857965E-01
H58 -3.409232183732E-01  4.715707310448E-01 -4.663772857965E-01
H59 -4.061213948670E-01  4.978861239638E-01  3.618497648738E-01
H60  4.061213948670E-01 -4.978861239638E-01 -3.618497648738E-01
H61  1.511478650756E-02  3.311914745380E-02  1.793408032142E-01
H62 -1.511478650756E-02 -3.311914745380E-02 -1.793408032142E-01
H63 -3.068947264458E-01  3.627165857355E-01  2.267640287500E-01
H64  3.068947264458E-01 -3.627165857355E-01 -2.267640287500E-01
H65  1.117592865791E-01 -9.795099908417E-02  4.371589713443E-02
H66 -1.117592865791E-01  9.795099908417E-02 -4.371589713443E-02
H67 -2.089453551556E-01  2.298245727474E-01  9.159774885554E-02
H68  2.089453551556E-01 -2.298245727474E-01 -9.159774885554E-02
H69  4.438308970940E-01 -8.685913752129E-02  2.772104991837E-01
H70 -4.438308970940E-01  8.685913752129E-02 -2.772104991837E-01
H71 -4.819438538223E-01 -1.252863895841E-02  4.240430675093E-01
H72  4.819438538223E-01  1.252863895841E-02 -4.240430675093E-01
H73 -1.703821988856E-01 -9.753251852939E-02  4.858398851889E-01
H74  1.703821988856E-01  9.753251852939E-02 -4.858398851889E-01
H75  7.082674821045E-02 -2.502619814882E-01  3.994661044216E-01
H76 -7.082674821045E-02  2.502619814882E-01 -3.994661044216E-01
H77 -4.599643428137E-01 -2.215292097438E-01  1.414754896159E-01
H78  4.599643428137E-01  2.215292097438E-01 -1.414754896159E-01
H79  1.678202565173E-01 -3.822100915534E-01  2.643126271995E-01
H80 -1.678202565173E-01  3.822100915534E-01 -2.643126271995E-01
H81 -3.628263854265E-01 -3.539213789900E-01  6.136638208203E-03
H82  3.628263854265E-01  3.539213789900E-01 -6.136638208203E-03
H83  2.653777543470E-01  4.858689674452E-01  1.290623919356E-01
H84 -2.653777543470E-01 -4.858689674452E-01 -1.290623919356E-01


#===END

data_OPT_STEP_52

_symmetry_space_group_name_H-M 'P 1'
_cell_length_a      6.61695892
_cell_length_b      8.21719411
_cell_length_c     16.78550082
_cell_angle_alpha  100.740870
_cell_angle_beta   91.529454
_cell_angle_gamma   95.351928

loop_
_atom_site_label
_atom_site_fract_x
_atom_site_fract_y
_atom_site_fract_z
C1  6.537351491383E-02  2.359794054343E-01  3.254701049652E-01
C2 -6.537351491383E-02 -2.359794054343E-01 -3.254701049652E-01
C3  1.129630597392E-01  3.452368314967E-01  3.962329635878E-01
C4 -1.129630597392E-01 -3.452368314967E-01 -3.962329635878E-01
C5  3.066586772926E-01  4.413346097026E-01  4.095055370474E-01
C6 -3.066586772926E-01 -4.413346097026E-01 -4.095055370474E-01
C7  4.474161112897E-01  4.245724116130E-01  3.517418008920E-01
C8 -4.474161112897E-01 -4.245724116130E-01 -3.517418008920E-01
C9  4.053029431417E-01  3.105169968279E-01  2.760759576265E-01
C10 -4.053029431417E-01 -3.105169968279E-01 -2.760759576265E-01
C11  2.079198386773E-01  2.140806137680E-01  2.623741985836E-01
C12 -2.079198386773E-01 -2.140806137680E-01 -2.623741985836E-01
C13  1.628805695612E-01  1.046054942099E-01  1.895982643378E-01
C14 -1.628805695612E-01 -1.046054942099E-01 -1.895982643378E-01
C15  3.042844901443E-01  8.326027872475E-02  1.277008480181E-01
C16 -3.042844901443E-01 -8.326027872475E-02 -1.277008480181E-01
C17 -4.976011565833E-01  1.790934367621E-01  1.416339897320E-01
C18  4.976011565833E-01 -1.790934367621E-01 -1.416339897320E-01
C19 -4.543557028476E-01  2.908555928827E-01  2.163304891848E-01
C20  4.543557028476E-01 -2.908555928827E-01 -2.163304891848E-01
C21  2.596794213114E-01 -2.679454282362E-02  5.413669783448E-02
C22 -2.596794213114E-01  2.679454282362E-02 -5.413669783448E-02
C23  4.008005040271E-01 -4.784549613537E-02 -7.000393521082E-03
C24 -4.008005040271E-01  4.784549613537E-02  7.000393521082E-03
C25 -3.567673331573E-01  1.585612350975E-01  8.112150638455E-02
C26  3.567673331573E-01 -1.585612350975E-01 -8.112150638455E-02
C27 -4.199840590789E-01 -1.230974869260E-01  3.038315699730E-01
C28  4.199840590789E-01  1.230974869260E-01 -3.038315699730E-01
C29 -3.788820069059E-01 -8.295937360254E-02  3.852796452666E-01
C30  3.788820069059E-01  8.295937360254E-02 -3.852796452666E-01
C31 -1.996093643371E-01 -1.304284067835E-01  4.206542512344E-01
C32  1.996093643371E-01  1.304284067835E-01 -4.206542512344E-01
C33 -6.603812763659E-02 -2.153127712568E-01  3.731565789582E-01
C34  6.603812763659E-02  2.153127712568E-01 -3.731565789582E-01
C35 -1.018180271689E-01 -2.606339567393E-01  2.868727518649E-01
C36  1.018180271689E-01  2.606339567393E-01 -2.868727518649E-01
C37 -2.847909291184E-01 -2.137392091572E-01  2.511601452181E-01
C38  2.847909291184E-01  2.137392091572E-01 -2.511601452181E-01
C39 -3.230416600099E-01 -2.564414666465E-01  1.681497238751E-01
C40  3.230416600099E-01  2.564414666465E-01 -1.681497238751E-01
C41 -1.884573354384E-01 -3.451936076866E-01  1.166419601443E-01
C42  1.884573354384E-01  3.451936076866E-01 -1.166419601443E-01
C43 -5.110158962483E-03 -3.920070613511E-01  1.524526509026E-01
C44  5.110158962483E-03  3.920070613511E-01 -1.524526509026E-01
C45  3.149902708969E-02 -3.473672422877E-01  2.374453898067E-01
C46 -3.149902708969E-02  3.473672422877E-01 -2.374453898067E-01
C47 -2.260087945861E-01 -3.886346220535E-01  3.288191485178E-02
C48  2.260087945861E-01  3.886346220535E-01 -3.288191485178E-02
C49 -9.174829160347E-02 -4.765907908917E-01 -1.792612416224E-02
C50  9.174829160347E-02  4.765907908917E-01  1.792612416224E-02
C51  1.287681097729E-01 -4.794276625473E-01  1.022558883385E-01
C52 -1.287681097729E-01  4.794276625473E-01 -1.022558883385E-01
H53 -8.158017037788E-02  1.634573006048E-01  3.154803595059E-01
H54  8.158017037788E-02 -1.634573006048E-01 -3.154803595059E-01
H55  4.276170008353E-03  3.600639255700E-01  4.435280978205E-01
H56 -4.276170008353E-03 -3.600639255700E-01 -4.435280978205E-01
H57  3.411525053874E-01 -4.717849453546E-01  4.663150571167E-01
H58 -3.411525053874E-01  4.717849453546E-01 -4.663150571167E-01
H59 -4.059724657520E-01  4.977213889937E-01  3.618080020659E-01
H60  4.059724657520E-01 -4.977213889937E-01 -3.618080020659E-01
H61  1.521854539102E-02  3.304614506704E-02  1.793057290739E-01
H62 -1.521854539102E-02 -3.304614506704E-02 -1.793057290739E-01
H63 -3.068334824269E-01  3.626523084996E-01  2.267300617726E-01
H64  3.068334824269E-01 -3.626523084996E-01 -2.267300617726E-01
H65  1.118284824035E-01 -9.801258946816E-02  4.371270971312E-02
H66 -1.118284824035E-01  9.801258946816E-02 -4.371270971312E-02
H67 -2.089529507045E-01  2.298290952866E-01  9.158074021190E-02
H68  2.089529507045E-01 -2.298290952866E-01 -9.158074021190E-02
H69  4.440514057412E-01 -8.701864482638E-02  2.772009202896E-01
H70 -4.440514057412E-01  8.701864482638E-02 -2.772009202896E-01
H71 -4.816767215935E-01 -1.283452241385E-02  4.240212570334E-01
H72  4.816767215935E-01  1.283452241385E-02 -4.240212570334E-01
H73 -1.700806993358E-01 -9.781578154189E-02  4.857888827404E-01
H74  1.700806993358E-01  9.781578154189E-02 -4.857888827404E-01
H75  7.109514441682E-02 -2.504397476768E-01  3.994180518096E-01
H76 -7.109514441682E-02  2.504397476768E-01 -3.994180518096E-01
H77 -4.597905573924E-01 -2.215452951005E-01  1.414768033989E-01
H78  4.597905573924E-01  2.215452951005E-01 -1.414768033989E-01
H79  1.680244017438E-01 -3.822873347683E-01  2.642669825076E-01
H80 -1.680244017438E-01  3.822873347683E-01 -2.642669825076E-01
H81 -3.627872800447E-01 -3.539187208001E-01  6.154703320677E-03
H82  3.627872800447E-01  3.539187208001E-01 -6.154703320677E-03
H83  2.654636846099E-01  4.858332430997E-01  1.290299950354E-01
H84 -2.654636846099E-01 -4.858332430997E-01 -1.290299950354E-01


#===END

data_OPT_STEP_53

_symmetry_space_group_name_H-M 'P 1'
_cell_length_a      6.61696949
_cell_length_b      8.21657946
_cell_length_c     16.78789327
_cell_angle_alpha  100.728215
_cell_angle_beta   91.537429
_cell_angle_gamma   95.348825

loop_
_atom_site_label
_atom_site_fract_x
_atom_site_fract_y
_atom_site_fract_z
C1  6.551325384610E-02  2.358345683973E-01  3.254288593037E-01
C2 -6.551325384610E-02 -2.358345683973E-01 -3.254288593037E-01
C3  1.131136868310E-01  3.450908712769E-01  3.961729827950E-01
C4 -1.131136868310E-01 -3.450908712769E-01 -3.961729827950E-01
C5  3.068233622556E-01  4.411659323853E-01  4.094424213714E-01
C6 -3.068233622556E-01 -4.411659323853E-01 -4.094424213714E-01
C7  4.475825915476E-01  4.243779590978E-01  3.516972423489E-01
C8 -4.475825915476E-01 -4.243779590978E-01 -3.516972423489E-01
C9  4.054436901938E-01  3.103473260511E-01  2.760464130260E-01
C10 -4.054436901938E-01 -3.103473260511E-01 -2.760464130260E-01
C11  2.080477045683E-01  2.139367396539E-01  2.623465913947E-01
C12 -2.080477045683E-01 -2.139367396539E-01 -2.623465913947E-01
C13  1.629870194105E-01  1.044821086946E-01  1.895859923620E-01
C14 -1.629870194105E-01 -1.044821086946E-01 -1.895859923620E-01
C15  3.043639211104E-01  8.316381965854E-02  1.276954567354E-01
C16 -3.043639211104E-01 -8.316381965854E-02 -1.276954567354E-01
C17 -4.975174764394E-01  1.789845215009E-01  1.416235853368E-01
C18  4.975174764394E-01 -1.789845215009E-01 -1.416235853368E-01
C19 -4.542362394947E-01  2.907029510428E-01  2.163102417141E-01
C20  4.542362394947E-01 -2.907029510428E-01 -2.163102417141E-01
C21  2.597166836221E-01 -2.683395130141E-02  5.413747858327E-02
C22 -2.597166836221E-01  2.683395130141E-02 -5.413747858327E-02
C23  4.007992063334E-01 -4.784023287086E-02 -6.997686840079E-03
C24 -4.007992063334E-01  4.784023287086E-02  6.997686840079E-03
C25 -3.567260362146E-01  1.585056337655E-01  8.111099684248E-02
C26  3.567260362146E-01 -1.585056337655E-01 -8.111099684248E-02
C27 -4.198462123907E-01 -1.233012973521E-01  3.038222140974E-01
C28  4.198462123907E-01  1.233012973521E-01 -3.038222140974E-01
C29 -3.786826154760E-01 -8.319663981674E-02  3.852522765140E-01
C30  3.786826154760E-01  8.319663981674E-02 -3.852522765140E-01
C31 -1.993702038399E-01 -1.306759421298E-01  4.206057896501E-01
C32  1.993702038399E-01  1.306759421298E-01 -4.206057896501E-01
C33 -6.580211878082E-02 -2.155110732755E-01  3.731038766203E-01
C34  6.580211878082E-02  2.155110732755E-01 -3.731038766203E-01
C35 -1.016545881058E-01 -2.608107763643E-01  2.868386149847E-01
C36  1.016545881058E-01  2.608107763643E-01 -2.868386149847E-01
C37 -2.846697977867E-01 -2.139071157556E-01  2.511478255789E-01
C38  2.846697977867E-01  2.139071157556E-01 -2.511478255789E-01
C39 -3.229779129532E-01 -2.565687389643E-01  1.681539645024E-01
C40  3.229779129532E-01  2.565687389643E-01 -1.681539645024E-01
C41 -1.884007475835E-01 -3.452674274308E-01  1.166407399667E-01
C42  1.884007475835E-01  3.452674274308E-01 -1.166407399667E-01
C43 -5.021835684819E-03 -3.921030486963E-01  1.524303486570E-01
C44  5.021835684819E-03  3.921030486963E-01 -1.524303486570E-01
C45  3.164375224486E-02 -3.475102439599E-01  2.374067461117E-01
C46 -3.164375224486E-02  3.475102439599E-01 -2.374067461117E-01
C47 -2.259929335237E-01 -3.886419138621E-01  3.289568224311E-02
C48  2.259929335237E-01  3.886419138621E-01 -3.289568224311E-02
C49 -9.175377531241E-02 -4.765654841908E-01 -1.791636372100E-02
C50  9.175377531241E-02  4.765654841908E-01  1.791636372100E-02
C51  1.288247073142E-01 -4.795049746138E-01  1.022301135353E-01
C52 -1.288247073142E-01  4.795049746138E-01 -1.022301135353E-01
H53 -8.145300985547E-02  1.633374766590E-01  3.154367322217E-01
H54  8.145300985547E-02 -1.633374766590E-01 -3.154367322217E-01
H55  4.406854753202E-03  3.599518178384E-01  4.434458611154E-01
H56 -4.406854753202E-03 -3.599518178384E-01 -4.434458611154E-01
H57  3.413390280732E-01 -4.719563704820E-01  4.662372844410E-01
H58 -3.413390280732E-01  4.719563704820E-01 -4.662372844410E-01
H59 -4.058034728404E-01  4.975233598751E-01  3.617609242160E-01
H60  4.058034728404E-01 -4.975233598751E-01 -3.617609242160E-01
H61  1.532342288400E-02  3.293057369749E-02  1.792954833022E-01
H62 -1.532342288400E-02 -3.293057369749E-02 -1.792954833022E-01
H63 -3.067098315890E-01  3.624832128109E-01  2.267095345618E-01
H64  3.067098315890E-01 -3.624832128109E-01 -2.267095345618E-01
H65  1.118660587537E-01 -9.804565467122E-02  4.371626836858E-02
H66 -1.118660587537E-01  9.804565467122E-02 -4.371626836858E-02
H67 -2.089159482773E-01  2.297734109393E-01  9.156609316393E-02
H68  2.089159482773E-01 -2.297734109393E-01 -9.156609316393E-02
H69  4.441643646462E-01 -8.721206822811E-02  2.772054980481E-01
H70 -4.441643646462E-01  8.721206822811E-02 -2.772054980481E-01
H71 -4.814614112201E-01 -1.310698065084E-02  4.240006007190E-01
H72  4.814614112201E-01  1.310698065084E-02 -4.240006007190E-01
H73 -1.698191402296E-01 -9.811104815755E-02  4.857291075142E-01
H74  1.698191402296E-01  9.811104815755E-02 -4.857291075142E-01
H75  7.134758601168E-02 -2.506556622095E-01  3.993542125895E-01
H76 -7.134758601168E-02  2.506556622095E-01 -3.993542125895E-01
H77 -4.597425593614E-01 -2.216471184302E-01  1.414951996612E-01
H78  4.597425593614E-01  2.216471184302E-01 -1.414951996612E-01
H79  1.681875788851E-01 -3.824512684717E-01  2.642138395893E-01
H80 -1.681875788851E-01  3.824512684717E-01 -2.642138395893E-01
H81 -3.627975763994E-01 -3.539168769976E-01  6.183915634382E-03
H82  3.627975763994E-01  3.539168769976E-01 -6.183915634382E-03
H83  2.655347858076E-01  4.857306719502E-01  1.289897407591E-01
H84 -2.655347858076E-01 -4.857306719502E-01 -1.289897407591E-01


#===END

data_OPT_STEP_54

_symmetry_space_group_name_H-M 'P 1'
_cell_length_a      6.61712791
_cell_length_b      8.21625748
_cell_length_c     16.79016683
_cell_angle_alpha  100.712649
_cell_angle_beta   91.543098
_cell_angle_gamma   95.350922

loop_
_atom_site_label
_atom_site_fract_x
_atom_site_fract_y
_atom_site_fract_z
C1  6.563217699957E-02  2.357359306485E-01  3.253707945710E-01
C2 -6.563217699957E-02 -2.357359306485E-01 -3.253707945710E-01
C3  1.132595751835E-01  3.449622047406E-01  3.960993837642E-01
C4 -1.132595751835E-01 -3.449622047406E-01 -3.960993837642E-01
C5  3.069955502483E-01  4.409958553072E-01  4.093672735179E-01
C6 -3.069955502483E-01 -4.409958553072E-01 -4.093672735179E-01
C7  4.477357824054E-01  4.242209804641E-01  3.516317542579E-01
C8 -4.477357824054E-01 -4.242209804641E-01 -3.516317542579E-01
C9  4.055572589048E-01  3.102373522266E-01  2.759939601117E-01
C10 -4.055572589048E-01 -3.102373522266E-01 -2.759939601117E-01
C11  2.081576990395E-01  2.138324323787E-01  2.623040546532E-01
C12 -2.081576990395E-01 -2.138324323787E-01 -2.623040546532E-01
C13  1.630628901780E-01  1.044177629519E-01  1.895572702704E-01
C14 -1.630628901780E-01 -1.044177629519E-01 -1.895572702704E-01
C15  3.044124199356E-01  8.312597791669E-02  1.276738303990E-01
C16 -3.044124199356E-01 -8.312597791669E-02 -1.276738303990E-01
C17 -4.974633305349E-01  1.789347479070E-01  1.415934897708E-01
C18  4.974633305349E-01 -1.789347479070E-01 -1.415934897708E-01
C19 -4.541487414983E-01  2.906176841115E-01  2.162651294216E-01
C20  4.541487414983E-01 -2.906176841115E-01 -2.162651294216E-01
C21  2.597433743865E-01 -2.685613963889E-02  5.413522968553E-02
C22 -2.597433743865E-01  2.685613963889E-02 -5.413522968553E-02
C23  4.007995854529E-01 -4.783971518984E-02 -6.992097815946E-03
C24 -4.007995854529E-01  4.783971518984E-02  6.992097815946E-03
C25 -3.566984547918E-01  1.584793818123E-01  8.108846402005E-02
C26  3.566984547918E-01 -1.584793818123E-01 -8.108846402005E-02
C27 -4.196137559746E-01 -1.234270066024E-01  3.038023790105E-01
C28  4.196137559746E-01  1.234270066024E-01 -3.038023790105E-01
C29 -3.784225569836E-01 -8.340426681806E-02  3.852172619695E-01
C30  3.784225569836E-01  8.340426681806E-02 -3.852172619695E-01
C31 -1.991046563524E-01 -1.309253083671E-01  4.205518692682E-01
C32  1.991046563524E-01  1.309253083671E-01 -4.205518692682E-01
C33 -6.556398382153E-02 -2.157271724594E-01  3.730475859195E-01
C34  6.556398382153E-02  2.157271724594E-01 -3.730475859195E-01
C35 -1.014444542723E-01 -2.609392327619E-01  2.867971553346E-01
C36  1.014444542723E-01  2.609392327619E-01 -2.867971553346E-01
C37 -2.844691530631E-01 -2.139998660331E-01  2.511263247570E-01
C38  2.844691530631E-01  2.139998660331E-01 -2.511263247570E-01
C39 -3.228239636034E-01 -2.566062469685E-01  1.681488013697E-01
C40  3.228239636034E-01  2.566062469685E-01 -1.681488013697E-01
C41 -1.882986147788E-01 -3.452993020681E-01  1.166345564645E-01
C42  1.882986147788E-01  3.452993020681E-01 -1.166345564645E-01
C43 -4.901551252684E-03 -3.921563658460E-01  1.524033071045E-01
C44  4.901551252684E-03  3.921563658460E-01 -1.524033071045E-01
C45  3.181607206684E-02 -3.476147477888E-01  2.373627050847E-01
C46 -3.181607206684E-02  3.476147477888E-01 -2.373627050847E-01
C47 -2.259631814041E-01 -3.886557397526E-01  3.290852867806E-02
C48  2.259631814041E-01  3.886557397526E-01 -3.290852867806E-02
C49 -9.177158216602E-02 -4.765680325276E-01 -1.790502753752E-02
C50  9.177158216602E-02  4.765680325276E-01  1.790502753752E-02
C51  1.289067463923E-01 -4.795335377528E-01  1.022005166391E-01
C52 -1.289067463923E-01  4.795335377528E-01 -1.022005166391E-01
H53 -8.135024194911E-02  1.632664598233E-01  3.153781917034E-01
H54  8.135024194911E-02 -1.632664598233E-01 -3.153781917034E-01
H55  4.533624789501E-03  3.598499399337E-01  4.433508010423E-01
H56 -4.533624789501E-03 -3.598499399337E-01 -4.433508010423E-01
H57  3.415470318795E-01 -4.721500546298E-01  4.661494800085E-01
H58 -3.415470318795E-01  4.721500546298E-01 -4.661494800085E-01
H59 -4.056325329443E-01  4.973382769864E-01  3.616959339085E-01
H60  4.056325329443E-01 -4.973382769864E-01 -3.616959339085E-01
H61  1.539006884979E-02  3.288569682341E-02  1.792688050430E-01
H62 -1.539006884979E-02 -3.288569682341E-02 -1.792688050430E-01
H63 -3.066240767665E-01  3.623947349620E-01  2.266580462216E-01
H64  3.066240767665E-01 -3.623947349620E-01 -2.266580462216E-01
H65  1.118922164975E-01 -9.806271750735E-02  4.371961717041E-02
H66 -1.118922164975E-01  9.806271750735E-02 -4.371961717041E-02
H67 -2.088883016151E-01  2.297417656215E-01  9.153820356149E-02
H68  2.088883016151E-01 -2.297417656215E-01 -9.153820356149E-02
H69  4.443962563532E-01 -8.730398437121E-02  2.771980876096E-01
H70 -4.443962563532E-01  8.730398437121E-02 -2.771980876096E-01
H71 -4.811805466703E-01 -1.335300123880E-02  4.239712655773E-01
H72  4.811805466703E-01  1.335300123880E-02 -4.239712655773E-01
H73 -1.695342401321E-01 -9.841328650892E-02  4.856631932823E-01
H74  1.695342401321E-01  9.841328650892E-02 -4.856631932823E-01
H75  7.159994114699E-02 -2.508823828926E-01  3.992853490410E-01
H76 -7.159994114699E-02  2.508823828926E-01 -3.992853490410E-01
H77 -4.596157436640E-01 -2.216879001983E-01  1.415066172040E-01
H78  4.596157436640E-01  2.216879001983E-01 -1.415066172040E-01
H79  1.683685659128E-01 -3.825794655306E-01  2.641550870881E-01
H80 -1.683685659128E-01  3.825794655306E-01 -2.641550870881E-01
H81 -3.627721521198E-01 -3.539003434910E-01  6.211210071298E-03
H82  3.627721521198E-01  3.539003434910E-01 -6.211210071298E-03
H83  2.656304433258E-01  4.856867748797E-01  1.289447460792E-01
H84 -2.656304433258E-01 -4.856867748797E-01 -1.289447460792E-01


#===END

data_OPT_STEP_55

_symmetry_space_group_name_H-M 'P 1'
_cell_length_a      6.61731867
_cell_length_b      8.21591636
_cell_length_c     16.79136320
_cell_angle_alpha  100.690689
_cell_angle_beta   91.546748
_cell_angle_gamma   95.352131

loop_
_atom_site_label
_atom_site_fract_x
_atom_site_fract_y
_atom_site_fract_z
C1  6.576135356555E-02  2.356607367389E-01  3.253263362394E-01
C2 -6.576135356555E-02 -2.356607367389E-01 -3.253263362394E-01
C3  1.134022999178E-01  3.448782075936E-01  3.960316343300E-01
C4 -1.134022999178E-01 -3.448782075936E-01 -3.960316343300E-01
C5  3.071606861807E-01  4.408660744315E-01  4.092909521471E-01
C6 -3.071606861807E-01 -4.408660744315E-01 -4.092909521471E-01
C7  4.479049799549E-01  4.240571160438E-01  3.515700541911E-01
C8 -4.479049799549E-01 -4.240571160438E-01 -3.515700541911E-01
C9  4.057026611716E-01  3.100938153228E-01  2.759532827935E-01
C10 -4.057026611716E-01 -3.100938153228E-01 -2.759532827935E-01
C11  2.082816544372E-01  2.137368456957E-01  2.622725097505E-01
C12 -2.082816544372E-01 -2.137368456957E-01 -2.622725097505E-01
C13  1.631634638365E-01  1.043409186278E-01  1.895470463595E-01
C14 -1.631634638365E-01 -1.043409186278E-01 -1.895470463595E-01
C15  3.044946583244E-01  8.304668716042E-02  1.276713097732E-01
C16 -3.044946583244E-01 -8.304668716042E-02 -1.276713097732E-01
C17 -4.973772174665E-01  1.788385623062E-01  1.415737071047E-01
C18  4.973772174665E-01 -1.788385623062E-01 -1.415737071047E-01
C19 -4.540230510844E-01  2.904767054681E-01  2.162301683281E-01
C20  4.540230510844E-01 -2.904767054681E-01 -2.162301683281E-01
C21  2.597785082135E-01 -2.687778906554E-02  5.414481590752E-02
C22 -2.597785082135E-01  2.687778906554E-02 -5.414481590752E-02
C23  4.007959044644E-01 -4.782845739203E-02 -6.984077204995E-03
C24 -4.007959044644E-01  4.782845739203E-02  6.984077204995E-03
C25 -3.566498608766E-01  1.584153398330E-01  8.106721349101E-02
C26  3.566498608766E-01 -1.584153398330E-01 -8.106721349101E-02
C27 -4.194824618840E-01 -1.236254754488E-01  3.037777057496E-01
C28  4.194824618840E-01  1.236254754488E-01 -3.037777057496E-01
C29 -3.782520669536E-01 -8.364726830056E-02  3.851778245439E-01
C30  3.782520669536E-01  8.364726830056E-02 -3.851778245439E-01
C31 -1.988898142141E-01 -1.311433113596E-01  4.204956047923E-01
C32  1.988898142141E-01  1.311433113596E-01 -4.204956047923E-01
C33 -6.535322144519E-02 -2.158878717157E-01  3.729907318307E-01
C34  6.535322144519E-02  2.158878717157E-01 -3.729907318307E-01
C35 -1.012893799853E-01 -2.610742186309E-01  2.867567978730E-01
C36  1.012893799853E-01  2.610742186309E-01 -2.867567978730E-01
C37 -2.843460199185E-01 -2.141421484586E-01  2.511017522728E-01
C38  2.843460199185E-01  2.141421484586E-01 -2.511017522728E-01
C39 -3.227367970019E-01 -2.566994196502E-01  1.681382846627E-01
C40  3.227367970019E-01  2.566994196502E-01 -1.681382846627E-01
C41 -1.882316299912E-01 -3.453528143853E-01  1.166247956840E-01
C42  1.882316299912E-01  3.453528143853E-01 -1.166247956840E-01
C43 -4.817349620115E-03 -3.922239704516E-01  1.523793735678E-01
C44  4.817349620115E-03  3.922239704516E-01 -1.523793735678E-01
C45  3.194817118069E-02 -3.477170184448E-01  2.373233838588E-01
C46 -3.194817118069E-02  3.477170184448E-01 -2.373233838588E-01
C47 -2.259387108791E-01 -3.886680785272E-01  3.291338771274E-02
C48  2.259387108791E-01  3.886680785272E-01 -3.291338771274E-02
C49 -9.177453754264E-02 -4.765529212953E-01 -1.789857142180E-02
C50  9.177453754264E-02  4.765529212953E-01  1.789857142180E-02
C51  1.289574185869E-01 -4.795829837181E-01  1.021788887185E-01
C52 -1.289574185869E-01  4.795829837181E-01 -1.021788887185E-01
H53 -8.122839042371E-02  1.632081990353E-01  3.153419347829E-01
H54  8.122839042371E-02 -1.632081990353E-01 -3.153419347829E-01
H55  4.669832150120E-03  3.597800623804E-01  4.432699419312E-01
H56 -4.669832150120E-03 -3.597800623804E-01 -4.432699419312E-01
H57  3.417357171712E-01 -4.723003076713E-01  4.660582345830E-01
H58 -3.417357171712E-01  4.723003076713E-01 -4.660582345830E-01
H59 -4.054371521744E-01  4.971234563517E-01  3.616334502341E-01
H60  4.054371521744E-01 -4.971234563517E-01 -3.616334502341E-01
H61  1.548515120471E-02  3.282586506846E-02  1.792677468787E-01
H62 -1.548515120471E-02 -3.282586506846E-02 -1.792677468787E-01
H63 -3.064969168501E-01  3.622417071568E-01  2.266118424884E-01
H64  3.064969168501E-01 -3.622417071568E-01 -2.266118424884E-01
H65  1.119230121444E-01 -9.806892085338E-02  4.373952446433E-02
H66 -1.119230121444E-01  9.806892085338E-02 -4.373952446433E-02
H67 -2.088423267908E-01  2.296746737190E-01  9.150371850615E-02
H68  2.088423267908E-01 -2.296746737190E-01 -9.150371850615E-02
H69  4.444876930799E-01 -8.753160460753E-02  2.771862770471E-01
H70 -4.444876930799E-01  8.753160460753E-02 -2.771862770471E-01
H71 -4.810104747073E-01 -1.365612305026E-02  4.239365106273E-01
H72  4.810104747073E-01  1.365612305026E-02 -4.239365106273E-01
H73 -1.692847674961E-01 -9.864777444465E-02  4.855945149900E-01
H74  1.692847674961E-01  9.864777444465E-02 -4.855945149900E-01
H75  7.183222558282E-02 -2.510407900637E-01  3.992171723231E-01
H76 -7.183222558282E-02  2.510407900637E-01 -3.992171723231E-01
H77 -4.595497383490E-01 -2.217823528132E-01  1.415077546793E-01
H78  4.595497383490E-01  2.217823528132E-01 -1.415077546793E-01
H79  1.685226360815E-01 -3.826790177256E-01  2.641040390122E-01
H80 -1.685226360815E-01  3.826790177256E-01 -2.641040390122E-01
H81 -3.627562237363E-01 -3.538955108032E-01  6.226456274702E-03
H82  3.627562237363E-01  3.538955108032E-01 -6.226456274702E-03
H83  2.656980569646E-01  4.856335542167E-01  1.289118703162E-01
H84 -2.656980569646E-01 -4.856335542167E-01 -1.289118703162E-01


#===END

data_OPT_STEP_56

_symmetry_space_group_name_H-M 'P 1'
_cell_length_a      6.61705335
_cell_length_b      8.21558744
_cell_length_c     16.79425622
_cell_angle_alpha  100.677918
_cell_angle_beta   91.553294
_cell_angle_gamma   95.349621

loop_
_atom_site_label
_atom_site_fract_x
_atom_site_fract_y
_atom_site_fract_z
C1  6.586905541496E-02  2.355020731577E-01  3.252761584655E-01
C2 -6.586905541496E-02 -2.355020731577E-01 -3.252761584655E-01
C3  1.135150125203E-01  3.447242547399E-01  3.959576000956E-01
C4 -1.135150125203E-01 -3.447242547399E-01 -3.959576000956E-01
C5  3.072963619817E-01  4.406860555876E-01  4.092140155032E-01
C6 -3.072963619817E-01 -4.406860555876E-01 -4.092140155032E-01
C7  4.480447167384E-01  4.238673810177E-01  3.515104430030E-01
C8 -4.480447167384E-01 -4.238673810177E-01 -3.515104430030E-01
C9  4.058141986166E-01  3.099385127069E-01  2.759097340405E-01
C10 -4.058141986166E-01 -3.099385127069E-01 -2.759097340405E-01
C11  2.083881198312E-01  2.135776891852E-01  2.622385722274E-01
C12 -2.083881198312E-01 -2.135776891852E-01 -2.622385722274E-01
C13  1.632407711919E-01  1.042187163976E-01  1.895272749728E-01
C14 -1.632407711919E-01 -1.042187163976E-01 -1.895272749728E-01
C15  3.045435580022E-01  8.297240056720E-02  1.276553317592E-01
C16 -3.045435580022E-01 -8.297240056720E-02 -1.276553317592E-01
C17 -4.973102792956E-01  1.787437780981E-01  1.415540931720E-01
C18  4.973102792956E-01 -1.787437780981E-01 -1.415540931720E-01
C19 -4.539263392735E-01  2.903443058615E-01  2.161961469439E-01
C20  4.539263392735E-01 -2.903443058615E-01 -2.161961469439E-01
C21  2.597972762465E-01 -2.691395170727E-02  5.414273148249E-02
C22 -2.597972762465E-01  2.691395170727E-02 -5.414273148249E-02
C23  4.007895313563E-01 -4.782308940740E-02 -6.981070596794E-03
C24 -4.007895313563E-01  4.782308940740E-02  6.981070596794E-03
C25 -3.566057544482E-01  1.583583743254E-01  8.105349290630E-02
C26  3.566057544482E-01 -1.583583743254E-01 -8.105349290630E-02
C27 -4.193427707006E-01 -1.238056793805E-01  3.037564297843E-01
C28  4.193427707006E-01  1.238056793805E-01 -3.037564297843E-01
C29 -3.780711764765E-01 -8.388964603940E-02  3.851386369603E-01
C30  3.780711764765E-01  8.388964603940E-02 -3.851386369603E-01
C31 -1.986711320392E-01 -1.314034376696E-01  4.204347513464E-01
C32  1.986711320392E-01  1.314034376696E-01 -4.204347513464E-01
C33 -6.514158209580E-02 -2.161079976907E-01  3.729271740430E-01
C34  6.514158209580E-02  2.161079976907E-01 -3.729271740430E-01
C35 -1.011307331822E-01 -2.612448082602E-01  2.867119769927E-01
C36  1.011307331822E-01  2.612448082602E-01 -2.867119769927E-01
C37 -2.842191644037E-01 -2.142848378593E-01  2.510787824891E-01
C38  2.842191644037E-01  2.142848378593E-01 -2.510787824891E-01
C39 -3.226672109638E-01 -2.568023187082E-01  1.681350278558E-01
C40  3.226672109638E-01  2.568023187082E-01 -1.681350278558E-01
C41 -1.881809200687E-01 -3.454252012705E-01  1.166195613972E-01
C42  1.881809200687E-01  3.454252012705E-01 -1.166195613972E-01
C43 -4.734998391227E-03 -3.923247264003E-01  1.523517076548E-01
C44  4.734998391227E-03  3.923247264003E-01 -1.523517076548E-01
C45  3.208545109704E-02 -3.478642700687E-01  2.372764341544E-01
C46 -3.208545109704E-02  3.478642700687E-01 -2.372764341544E-01
C47 -2.259359993351E-01 -3.886839186111E-01  3.292703108570E-02
C48  2.259359993351E-01  3.886839186111E-01 -3.292703108570E-02
C49 -9.179491749006E-02 -4.765450654827E-01 -1.788677696149E-02
C50  9.179491749006E-02  4.765450654827E-01  1.788677696149E-02
C51  1.290218987046E-01 -4.796534413213E-01  1.021486711313E-01
C52 -1.290218987046E-01  4.796534413213E-01 -1.021486711313E-01
H53 -8.113812975599E-02  1.630720431632E-01  3.152925856169E-01
H54  8.113812975599E-02 -1.630720431632E-01 -3.152925856169E-01
H55  4.764040855063E-03  3.596558115452E-01  4.431763335732E-01
H56 -4.764040855063E-03 -3.596558115452E-01 -4.431763335732E-01
H57  3.418871739070E-01 -4.724918479422E-01  4.659654947254E-01
H58 -3.418871739070E-01  4.724918479422E-01 -4.659654947254E-01
H59 -4.052875004764E-01  4.969277357595E-01  3.615685222802E-01
H60  4.052875004764E-01 -4.969277357595E-01 -3.615685222802E-01
H61  1.554941052975E-02  3.271952151700E-02  1.792508792002E-01
H62 -1.554941052975E-02 -3.271952151700E-02 -1.792508792002E-01
H63 -3.063866042880E-01  3.620901123765E-01  2.265754170592E-01
H64  3.063866042880E-01 -3.620901123765E-01 -2.265754170592E-01
H65  1.119343463265E-01 -9.809896648957E-02  4.374276561001E-02
H66 -1.119343463265E-01  9.809896648957E-02 -4.374276561001E-02
H67 -2.087879365269E-01  2.296053897711E-01  9.148621531736E-02
H68  2.087879365269E-01 -2.296053897711E-01 -9.148621531736E-02
H69  4.446073363918E-01 -8.768867430401E-02  2.771796155616E-01
H70 -4.446073363918E-01  8.768867430401E-02 -2.771796155616E-01
H71 -4.808233472931E-01 -1.393812206827E-02  4.239026054873E-01
H72  4.808233472931E-01  1.393812206827E-02 -4.239026054873E-01
H73 -1.690457562660E-01 -9.895524037234E-02  4.855205744965E-01
H74  1.690457562660E-01  9.895524037234E-02 -4.855205744965E-01
H75  7.207466410230E-02 -2.512683575134E-01  3.991375655855E-01
H76 -7.207466410230E-02  2.512683575134E-01 -3.991375655855E-01
H77 -4.594901718800E-01 -2.218458279652E-01  1.415188099755E-01
H78  4.594901718800E-01  2.218458279652E-01 -1.415188099755E-01
H79  1.686742722916E-01 -3.828599137969E-01  2.640420676135E-01
H80 -1.686742722916E-01  3.828599137969E-01 -2.640420676135E-01
H81 -3.627925694841E-01 -3.539144200298E-01  6.257730086398E-03
H82  3.627925694841E-01  3.539144200298E-01 -6.257730086398E-03
H83  2.657769351987E-01  4.855297618209E-01  1.288662324319E-01
H84 -2.657769351987E-01 -4.855297618209E-01 -1.288662324319E-01


#===END

data_OPT_STEP_57

_symmetry_space_group_name_H-M 'P 1'
_cell_length_a      6.61755107
_cell_length_b      8.21447423
_cell_length_c     16.79688129
_cell_angle_alpha  100.659995
_cell_angle_beta   91.547184
_cell_angle_gamma   95.351455

loop_
_atom_site_label
_atom_site_fract_x
_atom_site_fract_y
_atom_site_fract_z
C1  6.601850507196E-02  2.354544579533E-01  3.252421586673E-01
C2 -6.601850507196E-02 -2.354544579533E-01 -3.252421586673E-01
C3  1.136972034338E-01  3.446404230490E-01  3.959027895610E-01
C4 -1.136972034338E-01 -3.446404230490E-01 -3.959027895610E-01
C5  3.074859932090E-01  4.405730736412E-01  4.091366907129E-01
C6 -3.074859932090E-01 -4.405730736412E-01 -4.091366907129E-01
C7  4.482150045159E-01  4.237492438480E-01  3.514358438989E-01
C8 -4.482150045159E-01 -4.237492438480E-01 -3.514358438989E-01
C9  4.059569579787E-01  3.098408051599E-01  2.758598238348E-01
C10 -4.059569579787E-01 -3.098408051599E-01 -2.758598238348E-01
C11  2.085137396774E-01  2.135289756914E-01  2.622068250145E-01
C12 -2.085137396774E-01 -2.135289756914E-01 -2.622068250145E-01
C13  1.633403328309E-01  1.041881237254E-01  1.895200338607E-01
C14 -1.633403328309E-01 -1.041881237254E-01 -1.895200338607E-01
C15  3.046154416448E-01  8.294155391734E-02  1.276491242342E-01
C16 -3.046154416448E-01 -8.294155391734E-02 -1.276491242342E-01
C17 -4.972430801549E-01  1.787009882713E-01  1.415201619834E-01
C18  4.972430801549E-01 -1.787009882713E-01 -1.415201619834E-01
C19 -4.538182442311E-01  2.902617162288E-01  2.161431206198E-01
C20  4.538182442311E-01 -2.902617162288E-01 -2.161431206198E-01
C21  2.598323693842E-01 -2.691142758776E-02  5.415726514691E-02
C22 -2.598323693842E-01  2.691142758776E-02 -5.415726514691E-02
C23  4.007923698985E-01 -4.781727381788E-02 -6.967047013303E-03
C24 -4.007923698985E-01  4.781727381788E-02  6.967047013303E-03
C25 -3.565753250921E-01  1.583277885753E-01  8.101650761212E-02
C26  3.565753250921E-01 -1.583277885753E-01 -8.101650761212E-02
C27 -4.191762068238E-01 -1.239197903262E-01  3.037407135694E-01
C28  4.191762068238E-01  1.239197903262E-01 -3.037407135694E-01
C29 -3.778816042012E-01 -8.405607387573E-02  3.851015287839E-01
C30  3.778816042012E-01  8.405607387573E-02 -3.851015287839E-01
C31 -1.984783790796E-01 -1.315930773281E-01  4.203699387465E-01
C32  1.984783790796E-01  1.315930773281E-01 -4.203699387465E-01
C33 -6.497929599431E-02 -2.162844694864E-01  3.728580718354E-01
C34  6.497929599431E-02  2.162844694864E-01 -3.728580718354E-01
C35 -1.009889557629E-01 -2.613611840035E-01  2.866634603334E-01
C36  1.009889557629E-01  2.613611840035E-01 -2.866634603334E-01
C37 -2.840756999208E-01 -2.143704978806E-01  2.510584320525E-01
C38  2.840756999208E-01  2.143704978806E-01 -2.510584320525E-01
C39 -3.225503397659E-01 -2.568377528753E-01  1.681361574160E-01
C40  3.225503397659E-01  2.568377528753E-01 -1.681361574160E-01
C41 -1.880961728601E-01 -3.454434555286E-01  1.166157573229E-01
C42  1.880961728601E-01  3.454434555286E-01 -1.166157573229E-01
C43 -4.649363908008E-03 -3.923716064161E-01  1.523190697861E-01
C44  4.649363908008E-03  3.923716064161E-01 -1.523190697861E-01
C45  3.220009478719E-02 -3.479595182247E-01  2.372223394150E-01
C46 -3.220009478719E-02  3.479595182247E-01 -2.372223394150E-01
C47 -2.258956865233E-01 -3.886742782223E-01  3.294626244772E-02
C48  2.258956865233E-01  3.886742782223E-01 -3.294626244772E-02
C49 -9.179283864872E-02 -4.765268844457E-01 -1.787245553521E-02
C50  9.179283864872E-02  4.765268844457E-01  1.787245553521E-02
C51  1.290722953604E-01 -4.796882960528E-01  1.021106870556E-01
C52 -1.290722953604E-01  4.796882960528E-01 -1.021106870556E-01
H53 -8.100502798207E-02  1.630689746032E-01  3.152681779588E-01
H54  8.100502798207E-02 -1.630689746032E-01 -3.152681779588E-01
H55  4.941400762441E-03  3.596050149646E-01  4.431101347945E-01
H56 -4.941400762441E-03 -3.596050149646E-01 -4.431101347945E-01
H57  3.420794085229E-01 -4.725989838416E-01  4.658645798263E-01
H58 -3.420794085229E-01  4.725989838416E-01 -4.658645798263E-01
H59 -4.051166242795E-01  4.967985927335E-01  3.614763001378E-01
H60  4.051166242795E-01 -4.967985927335E-01 -3.614763001378E-01
H61  1.564637398977E-02  3.270822256981E-02  1.792594514284E-01
H62 -1.564637398977E-02 -3.270822256981E-02 -1.792594514284E-01
H63 -3.062793521522E-01  3.619939576021E-01  2.265046160677E-01
H64  3.062793521522E-01 -3.619939576021E-01 -2.265046160677E-01
H65  1.119665217406E-01 -9.807627933956E-02  4.377332322502E-02
H66 -1.119665217406E-01  9.807627933956E-02 -4.377332322502E-02
H67 -2.087576283027E-01  2.295605052335E-01  9.143151745344E-02
H68  2.087576283027E-01 -2.295605052335E-01 -9.143151745344E-02
H69  4.447769333092E-01 -8.777743937730E-02  2.771825310968E-01
H70 -4.447769333092E-01  8.777743937730E-02 -2.771825310968E-01
H71 -4.806185552648E-01 -1.413246379418E-02  4.238705613146E-01
H72  4.806185552648E-01  1.413246379418E-02 -4.238705613146E-01
H73 -1.688339760657E-01 -9.916827267046E-02  4.854389182184E-01
H74  1.688339760657E-01  9.916827267046E-02 -4.854389182184E-01
H75  7.223851852178E-02 -2.514643621557E-01  3.990484134122E-01
H76 -7.223851852178E-02  2.514643621557E-01 -3.990484134122E-01
H77 -4.593754377757E-01 -2.218628431516E-01  1.415398099750E-01
H78  4.593754377757E-01  2.218628431516E-01 -1.415398099750E-01
H79  1.687878363132E-01 -3.829787451974E-01  2.639683337583E-01
H80 -1.687878363132E-01  3.829787451974E-01 -2.639683337583E-01
H81 -3.627508082427E-01 -3.538801761410E-01  6.297029037301E-03
H82  3.627508082427E-01  3.538801761410E-01 -6.297029037301E-03
H83  2.658291882611E-01  4.854752837999E-01  1.288075938736E-01
H84 -2.658291882611E-01 -4.854752837999E-01 -1.288075938736E-01


#===END

data_OPT_STEP_58

_symmetry_space_group_name_H-M 'P 1'
_cell_length_a      6.61751304
_cell_length_b      8.21444874
_cell_length_c     16.79763261
_cell_angle_alpha  100.656482
_cell_angle_beta   91.549282
_cell_angle_gamma   95.350771

loop_
_atom_site_label
_atom_site_fract_x
_atom_site_fract_y
_atom_site_fract_z
C1  6.602804044654E-02  2.354232702252E-01  3.252209115924E-01
C2 -6.602804044654E-02 -2.354232702252E-01 -3.252209115924E-01
C3  1.136982248760E-01  3.446228075036E-01  3.958726460633E-01
C4 -1.136982248760E-01 -3.446228075036E-01 -3.958726460633E-01
C5  3.074948008258E-01  4.405419382435E-01  4.091089152455E-01
C6 -3.074948008258E-01 -4.405419382435E-01 -4.091089152455E-01
C7  4.482324886997E-01  4.237057683187E-01  3.514167666865E-01
C8 -4.482324886997E-01 -4.237057683187E-01 -3.514167666865E-01
C9  4.059711946111E-01  3.098058948327E-01  2.758450206375E-01
C10 -4.059711946111E-01 -3.098058948327E-01 -2.758450206375E-01
C11  2.085313731366E-01  2.134876829717E-01  2.621940624978E-01
C12 -2.085313731366E-01 -2.134876829717E-01 -2.621940624978E-01
C13  1.633535701577E-01  1.041583760870E-01  1.895107606242E-01
C14 -1.633535701577E-01 -1.041583760870E-01 -1.895107606242E-01
C15  3.046268566970E-01  8.291788480289E-02  1.276439749476E-01
C16 -3.046268566970E-01 -8.291788480289E-02 -1.276439749476E-01
C17 -4.972289956514E-01  1.786713679750E-01  1.415157092695E-01
C18  4.972289956514E-01 -1.786713679750E-01 -1.415157092695E-01
C19 -4.538012918339E-01  2.902243313993E-01  2.161341621671E-01
C20  4.538012918339E-01 -2.902243313993E-01 -2.161341621671E-01
C21  2.598372756764E-01 -2.692055741131E-02  5.415477318857E-02
C22 -2.598372756764E-01  2.692055741131E-02 -5.415477318857E-02
C23  4.007896274214E-01 -4.781127800992E-02 -6.968107930497E-03
C24 -4.007896274214E-01  4.781127800992E-02  6.968107930497E-03
C25 -3.565655226577E-01  1.583070367072E-01  8.101498914874E-02
C26  3.565655226577E-01 -1.583070367072E-01 -8.101498914874E-02
C27 -4.191444225316E-01 -1.239580200457E-01  3.037278335295E-01
C28  4.191444225316E-01  1.239580200457E-01 -3.037278335295E-01
C29 -3.778344216791E-01 -8.409470299648E-02  3.850828725738E-01
C30  3.778344216791E-01  8.409470299648E-02 -3.850828725738E-01
C31 -1.984216889127E-01 -1.316314058630E-01  4.203486327035E-01
C32  1.984216889127E-01  1.316314058630E-01 -4.203486327035E-01
C33 -6.491916854976E-02 -2.163081806907E-01  3.728381283448E-01
C34  6.491916854976E-02  2.163081806907E-01 -3.728381283448E-01
C35 -1.009488828148E-01 -2.613894223331E-01  2.866493492403E-01
C36  1.009488828148E-01  2.613894223331E-01 -2.866493492403E-01
C37 -2.840505560719E-01 -2.144068598731E-01  2.510482047246E-01
C38  2.840505560719E-01  2.144068598731E-01 -2.510482047246E-01
C39 -3.225374271442E-01 -2.568669370789E-01  1.681309351268E-01
C40  3.225374271442E-01  2.568669370789E-01 -1.681309351268E-01
C41 -1.880876050890E-01 -3.454662536176E-01  1.166122100668E-01
C42  1.880876050890E-01  3.454662536176E-01 -1.166122100668E-01
C43 -4.631519340719E-03 -3.923941677783E-01  1.523116931770E-01
C44  4.631519340719E-03  3.923941677783E-01 -1.523116931770E-01
C45  3.223319551931E-02 -3.479862680882E-01  2.372098703436E-01
C46 -3.223319551931E-02  3.479862680882E-01 -2.372098703436E-01
C47 -2.258962261737E-01 -3.886835113442E-01  3.294740144062E-02
C48  2.258962261737E-01  3.886835113442E-01 -3.294740144062E-02
C49 -9.179515047133E-02 -4.765240025438E-01 -1.787058176672E-02
C50  9.179515047133E-02  4.765240025438E-01  1.787058176672E-02
C51  1.290816110574E-01 -4.797085974129E-01  1.021044654859E-01
C52 -1.290816110574E-01  4.797085974129E-01 -1.021044654859E-01
H53 -8.098902212683E-02  1.630252617427E-01  3.152507512596E-01
H54  8.098902212683E-02 -1.630252617427E-01 -3.152507512596E-01
H55  4.937041636896E-03  3.595923456983E-01  4.430741422773E-01
H56 -4.937041636896E-03 -3.595923456983E-01 -4.430741422773E-01
H57  3.420949449291E-01 -4.726480504767E-01  4.658353610964E-01
H58 -3.420949449291E-01  4.726480504767E-01 -4.658353610964E-01
H59 -4.050852070049E-01  4.967288567753E-01  3.614620480066E-01
H60  4.050852070049E-01 -4.967288567753E-01 -3.614620480066E-01
H61  1.566001725451E-02  3.267832682522E-02  1.792516287454E-01
H62 -1.566001725451E-02 -3.267832682522E-02 -1.792516287454E-01
H63 -3.062616327452E-01  3.619535235336E-01  2.264946435031E-01
H64  3.062616327452E-01 -3.619535235336E-01 -2.264946435031E-01
H65  1.119725158389E-01 -9.808627043206E-02  4.377270307158E-02
H66 -1.119725158389E-01  9.808627043206E-02 -4.377270307158E-02
H67 -2.087482873676E-01  2.295392351127E-01  9.142831177835E-02
H68  2.087482873676E-01 -2.295392351127E-01 -9.142831177835E-02
H69  4.447953314649E-01 -8.782565890904E-02  2.771729606779E-01
H70 -4.447953314649E-01  8.782565890904E-02 -2.771729606779E-01
H71 -4.805685268636E-01 -1.417403398066E-02  4.238493231786E-01
H72  4.805685268636E-01  1.417403398066E-02 -4.238493231786E-01
H73 -1.687728885769E-01 -9.921015230893E-02  4.854136051013E-01
H74  1.687728885769E-01  9.921015230893E-02 -4.854136051013E-01
H75  7.230490162006E-02 -2.514909679682E-01  3.990246651948E-01
H76 -7.230490162006E-02  2.514909679682E-01 -3.990246651948E-01
H77 -4.593789494999E-01 -2.219064813230E-01  1.415384512509E-01
H78  4.593789494999E-01  2.219064813230E-01 -1.415384512509E-01
H79  1.688349777177E-01 -3.829954326030E-01  2.639521385023E-01
H80 -1.688349777177E-01  3.829954326030E-01 -2.639521385023E-01
H81 -3.627494408591E-01 -3.538759533689E-01  6.300637165584E-03
H82  3.627494408591E-01  3.538759533689E-01 -6.300637165584E-03
H83  2.658461012856E-01  4.854552420693E-01  1.287977079998E-01
H84 -2.658461012856E-01 -4.854552420693E-01 -1.287977079998E-01


#===END

data_OPT_STEP_59

_symmetry_space_group_name_H-M 'P 1'
_cell_length_a      6.61739082
_cell_length_b      8.21451722
_cell_length_c     16.79851270
_cell_angle_alpha  100.652875
_cell_angle_beta   91.550499
_cell_angle_gamma   95.350735

loop_
_atom_site_label
_atom_site_fract_x
_atom_site_fract_y
_atom_site_fract_z
C1  6.602601256070E-02  2.354024009257E-01  3.251956847379E-01
C2 -6.602601256070E-02 -2.354024009257E-01 -3.251956847379E-01
C3  1.136940848708E-01  3.446035106123E-01  3.958401654460E-01
C4 -1.136940848708E-01 -3.446035106123E-01 -3.958401654460E-01
C5  3.075012597947E-01  4.405092471655E-01  4.090781849095E-01
C6 -3.075012597947E-01 -4.405092471655E-01 -4.090781849095E-01
C7  4.482506275787E-01  4.236604091951E-01  3.513947695097E-01
C8 -4.482506275787E-01 -4.236604091951E-01 -3.513947695097E-01
C9  4.059865649946E-01  3.097666933701E-01  2.758286557034E-01
C10 -4.059865649946E-01 -3.097666933701E-01 -2.758286557034E-01
C11  2.085364089699E-01  2.134623182225E-01  2.621759730406E-01
C12 -2.085364089699E-01 -2.134623182225E-01 -2.621759730406E-01
C13  1.633538922932E-01  1.041433036623E-01  1.894973668118E-01
C14 -1.633538922932E-01 -1.041433036623E-01 -1.894973668118E-01
C15  3.046300652177E-01  8.290302398167E-02  1.276359575121E-01
C16 -3.046300652177E-01 -8.290302398167E-02 -1.276359575121E-01
C17 -4.972165480855E-01  1.786451401022E-01  1.415087077797E-01
C18  4.972165480855E-01 -1.786451401022E-01 -1.415087077797E-01
C19 -4.537845111745E-01  2.901880781858E-01  2.161221980925E-01
C20  4.537845111745E-01 -2.901880781858E-01 -2.161221980925E-01
C21  2.598386898739E-01 -2.693199520662E-02  5.415325446410E-02
C22 -2.598386898739E-01  2.693199520662E-02 -5.415325446410E-02
C23  4.007909952358E-01 -4.781666942181E-02 -6.965789354404E-03
C24 -4.007909952358E-01  4.781666942181E-02  6.965789354404E-03
C25 -3.565583811691E-01  1.582965096699E-01  8.100929891714E-02
C26  3.565583811691E-01 -1.582965096699E-01 -8.100929891714E-02
C27 -4.191252419277E-01 -1.239893669127E-01  3.037100437856E-01
C28  4.191252419277E-01  1.239893669127E-01 -3.037100437856E-01
C29 -3.778058693095E-01 -8.413223541044E-02  3.850592333173E-01
C30  3.778058693095E-01  8.413223541044E-02 -3.850592333173E-01
C31 -1.983783049465E-01 -1.316602038914E-01  4.203213862021E-01
C32  1.983783049465E-01  1.316602038914E-01 -4.203213862021E-01
C33 -6.487279781873E-02 -2.163245235154E-01  3.728125583073E-01
C34  6.487279781873E-02  2.163245235154E-01 -3.728125583073E-01
C35 -1.009188062819E-01 -2.614078237674E-01  2.866302815822E-01
C36  1.009188062819E-01  2.614078237674E-01 -2.866302815822E-01
C37 -2.840312486498E-01 -2.144288746827E-01  2.510328074305E-01
C38  2.840312486498E-01  2.144288746827E-01 -2.510328074305E-01
C39 -3.225279483935E-01 -2.568838224732E-01  1.681214131178E-01
C40  3.225279483935E-01  2.568838224732E-01 -1.681214131178E-01
C41 -1.880805524885E-01 -3.454784831125E-01  1.166055545581E-01
C42  1.880805524885E-01  3.454784831125E-01 -1.166055545581E-01
C43 -4.617443615563E-03 -3.924084870733E-01  1.523016995556E-01
C44  4.617443615563E-03  3.924084870733E-01 -1.523016995556E-01
C45  3.225994537673E-02 -3.480017449951E-01  2.371936223184E-01
C46 -3.225994537673E-02  3.480017449951E-01 -2.371936223184E-01
C47 -2.258974685902E-01 -3.886878359386E-01  3.294647580865E-02
C48  2.258974685902E-01  3.886878359386E-01 -3.294647580865E-02
C49 -9.179999479621E-02 -4.765249117144E-01 -1.786877882589E-02
C50  9.179999479621E-02  4.765249117144E-01  1.786877882589E-02
C51  1.290926748400E-01 -4.797191815940E-01  1.020971610493E-01
C52 -1.290926748400E-01  4.797191815940E-01 -1.020971610493E-01
H53 -8.099362493043E-02  1.630052883237E-01  3.152273813269E-01
H54  8.099362493043E-02 -1.630052883237E-01 -3.152273813269E-01
H55  4.930851098655E-03  3.595723601399E-01  4.430379890012E-01
H56 -4.930851098655E-03 -3.595723601399E-01 -4.430379890012E-01
H57  3.421043963099E-01 -4.726947985935E-01  4.658013919801E-01
H58 -3.421043963099E-01  4.726947985935E-01 -4.658013919801E-01
H59 -4.050575530338E-01  4.966696093653E-01  3.614408131345E-01
H60  4.050575530338E-01 -4.966696093653E-01 -3.614408131345E-01
H61  1.565129097884E-02  3.267683961943E-02  1.792376961814E-01
H62 -1.565129097884E-02 -3.267683961943E-02 -1.792376961814E-01
H63 -3.062407474276E-01  3.619134156456E-01  2.264808213112E-01
H64  3.062407474276E-01 -3.619134156456E-01 -2.264808213112E-01
H65  1.119682382101E-01 -9.809075952282E-02  4.377233269297E-02
H66 -1.119682382101E-01  9.809075952282E-02 -4.377233269297E-02
H67 -2.087382704628E-01  2.295273459561E-01  9.141994696146E-02
H68  2.087382704628E-01 -2.295273459561E-01 -9.141994696146E-02
H69  4.448042548509E-01 -8.786164557652E-02  2.771588583852E-01
H70 -4.448042548509E-01  8.786164557652E-02 -2.771588583852E-01
H71 -4.805441880016E-01 -1.422214051957E-02  4.238232991087E-01
H72  4.805441880016E-01  1.422214051957E-02 -4.238232991087E-01
H73 -1.687271919332E-01 -9.924376880008E-02  4.853819403369E-01
H74  1.687271919332E-01  9.924376880008E-02 -4.853819403369E-01
H75  7.236654538364E-02 -2.514992927962E-01  3.989928521976E-01
H76 -7.236654538364E-02  2.514992927962E-01 -3.989928521976E-01
H77 -4.593752266148E-01 -2.219221278365E-01  1.415318955936E-01
H78  4.593752266148E-01  2.219221278365E-01 -1.415318955936E-01
H79  1.688665268588E-01 -3.830143337793E-01  2.639330458074E-01
H80 -1.688665268588E-01  3.830143337793E-01 -2.639330458074E-01
H81 -3.627571963750E-01 -3.538796420998E-01  6.302965868809E-03
H82  3.627571963750E-01  3.538796420998E-01 -6.302965868809E-03
H83  2.658664819433E-01  4.854473706181E-01  1.287867457151E-01
H84 -2.658664819433E-01 -4.854473706181E-01 -1.287867457151E-01


#===END

data_OPT_STEP_60

_symmetry_space_group_name_H-M 'P 1'
_cell_length_a      6.61755255
_cell_length_b      8.21357676
_cell_length_c     16.79795380
_cell_angle_alpha  100.648911
_cell_angle_beta   91.550933
_cell_angle_gamma   95.352333

loop_
_atom_site_label
_atom_site_fract_x
_atom_site_fract_y
_atom_site_fract_z
C1  6.603265681931E-02  2.354000866264E-01  3.251904212009E-01
C2 -6.603265681931E-02 -2.354000866264E-01 -3.251904212009E-01
C3  1.136838710010E-01  3.446351306386E-01  3.958278405716E-01
C4 -1.136838710010E-01 -3.446351306386E-01 -3.958278405716E-01
C5  3.074863222485E-01  4.405466552672E-01  4.090686016191E-01
C6 -3.074863222485E-01 -4.405466552672E-01 -4.090686016191E-01
C7  4.482488895932E-01  4.236701074632E-01  3.513929805986E-01
C8 -4.482488895932E-01 -4.236701074632E-01 -3.513929805986E-01
C9  4.059932612751E-01  3.097511688413E-01  2.758317426067E-01
C10 -4.059932612751E-01 -3.097511688413E-01 -2.758317426067E-01
C11  2.085430647868E-01  2.134477129676E-01  2.621742233316E-01
C12 -2.085430647868E-01 -2.134477129676E-01 -2.621742233316E-01
C13  1.633538033185E-01  1.041306852597E-01  1.894931340867E-01
C14 -1.633538033185E-01 -1.041306852597E-01 -1.894931340867E-01
C15  3.046289854390E-01  8.289958156257E-02  1.276330948448E-01
C16 -3.046289854390E-01 -8.289958156257E-02 -1.276330948448E-01
C17 -4.972228713893E-01  1.786522795456E-01  1.415085484813E-01
C18  4.972228713893E-01 -1.786522795456E-01 -1.415085484813E-01
C19 -4.537848158067E-01  2.901910973661E-01  2.161254962060E-01
C20  4.537848158067E-01 -2.901910973661E-01 -2.161254962060E-01
C21  2.598361713937E-01 -2.693563002813E-02  5.414790600675E-02
C22 -2.598361713937E-01  2.693563002813E-02 -5.414790600675E-02
C23  4.007910672056E-01 -4.781667832240E-02 -6.968661789798E-03
C24 -4.007910672056E-01  4.781667832240E-02  6.968661789798E-03
C25 -3.565659543902E-01  1.583097074870E-01  8.101179136659E-02
C26  3.565659543902E-01 -1.583097074870E-01 -8.101179136659E-02
C27 -4.191526797737E-01 -1.240145342767E-01  3.037044059586E-01
C28  4.191526797737E-01  1.240145342767E-01 -3.037044059586E-01
C29 -3.778314239683E-01 -8.415922668500E-02  3.850554723365E-01
C30  3.778314239683E-01  8.415922668500E-02 -3.850554723365E-01
C31 -1.983978765594E-01 -1.316794614381E-01  4.203192003683E-01
C32  1.983978765594E-01  1.316794614381E-01 -4.203192003683E-01
C33 -6.487903450552E-02 -2.163067362528E-01  3.728054258612E-01
C34  6.487903450552E-02  2.163067362528E-01 -3.728054258612E-01
C35 -1.009371369754E-01 -2.614020968119E-01  2.866255069593E-01
C36  1.009371369754E-01  2.614020968119E-01 -2.866255069593E-01
C37 -2.840522603753E-01 -2.144396155636E-01  2.510286278849E-01
C38  2.840522603753E-01  2.144396155636E-01 -2.510286278849E-01
C39 -3.225455123236E-01 -2.568951448346E-01  1.681150440154E-01
C40  3.225455123236E-01  2.568951448346E-01 -1.681150440154E-01
C41 -1.880823816168E-01 -3.454722344541E-01  1.166011468723E-01
C42  1.880823816168E-01  3.454722344541E-01 -1.166011468723E-01
C43 -4.621446916039E-03 -3.923937922612E-01  1.523012947398E-01
C44  4.621446916039E-03  3.923937922612E-01 -1.523012947398E-01
C45  3.225604170440E-02 -3.479767210287E-01  2.371941803343E-01
C46 -3.225604170440E-02  3.479767210287E-01 -2.371941803343E-01
C47 -2.258985691383E-01 -3.886936634233E-01  3.293975900318E-02
C48  2.258985691383E-01  3.886936634233E-01 -3.293975900318E-02
C49 -9.179785693392E-02 -4.765285917288E-01 -1.787134565585E-02
C50  9.179785693392E-02  4.765285917288E-01  1.787134565585E-02
C51  1.290942778842E-01 -4.796972881703E-01  1.021010740446E-01
C52 -1.290942778842E-01  4.796972881703E-01 -1.021010740446E-01
H53 -8.096804585720E-02  1.629484012601E-01  3.152340852293E-01
H54  8.096804585720E-02 -1.629484012601E-01 -3.152340852293E-01
H55  4.911062162063E-03  3.595939500932E-01  4.430383672499E-01
H56 -4.911062162063E-03 -3.595939500932E-01 -4.430383672499E-01
H57  3.420995768955E-01 -4.726566966531E-01  4.657936915005E-01
H58 -3.420995768955E-01  4.726566966531E-01 -4.657936915005E-01
H59 -4.050491764168E-01  4.966864738707E-01  3.614353116498E-01
H60  4.050491764168E-01 -4.966864738707E-01 -3.614353116498E-01
H61  1.565769929678E-02  3.262702590666E-02  1.792411842593E-01
H62 -1.565769929678E-02 -3.262702590666E-02 -1.792411842593E-01
H63 -3.062469714007E-01  3.619460379051E-01  2.264815740037E-01
H64  3.062469714007E-01 -3.619460379051E-01 -2.264815740037E-01
H65  1.119765464946E-01 -9.814048549286E-02  4.377751783764E-02
H66 -1.119765464946E-01  9.814048549286E-02 -4.377751783764E-02
H67 -2.087411810918E-01  2.295590544262E-01  9.142164077432E-02
H68  2.087411810918E-01 -2.295590544262E-01 -9.142164077432E-02
H69  4.448225558858E-01 -8.781314046147E-02  2.771472246887E-01
H70 -4.448225558858E-01  8.781314046147E-02 -2.771472246887E-01
H71 -4.805521439010E-01 -1.421547448505E-02  4.238192587119E-01
H72  4.805521439010E-01  1.421547448505E-02 -4.238192587119E-01
H73 -1.687147930912E-01 -9.923656591631E-02  4.853806363478E-01
H74  1.687147930912E-01  9.923656591631E-02 -4.853806363478E-01
H75  7.237902215368E-02 -2.514685772772E-01  3.989821194347E-01
H76 -7.237902215368E-02  2.514685772772E-01 -3.989821194347E-01
H77 -4.593750355563E-01 -2.219040401598E-01  1.415199951512E-01
H78  4.593750355563E-01  2.219040401598E-01 -1.415199951512E-01
H79  1.688470998170E-01 -3.830195476570E-01  2.639387522927E-01
H80 -1.688470998170E-01  3.830195476570E-01 -2.639387522927E-01
H81 -3.627471740665E-01 -3.538665153586E-01  6.289975064629E-03
H82  3.627471740665E-01  3.538665153586E-01 -6.289975064629E-03
H83  2.658347897868E-01  4.854155134740E-01  1.287997450575E-01
H84 -2.658347897868E-01 -4.854155134740E-01 -1.287997450575E-01


#===END

data_OPT_STEP_61

_symmetry_space_group_name_H-M 'P 1'
_cell_length_a      6.61792986
_cell_length_b      8.21154683
_cell_length_c     16.79696429
_cell_angle_alpha  100.639991
_cell_angle_beta   91.551989
_cell_angle_gamma   95.355961

loop_
_atom_site_label
_atom_site_fract_x
_atom_site_fract_y
_atom_site_fract_z
C1  6.604282483591E-02  2.353873011426E-01  3.251828953795E-01
C2 -6.604282483591E-02 -2.353873011426E-01 -3.251828953795E-01
C3  1.136775130170E-01  3.446624487751E-01  3.958122868497E-01
C4 -1.136775130170E-01 -3.446624487751E-01 -3.958122868497E-01
C5  3.074691709267E-01  4.405983384548E-01  4.090554686167E-01
C6 -3.074691709267E-01 -4.405983384548E-01 -4.090554686167E-01
C7  4.482521506500E-01  4.236791260877E-01  3.513921497454E-01
C8 -4.482521506500E-01 -4.236791260877E-01 -3.513921497454E-01
C9  4.059958708496E-01  3.097465100465E-01  2.758321562842E-01
C10 -4.059958708496E-01 -3.097465100465E-01 -2.758321562842E-01
C11  2.085487778279E-01  2.134332530884E-01  2.621690141001E-01
C12 -2.085487778279E-01 -2.134332530884E-01 -2.621690141001E-01
C13  1.633656484612E-01  1.040950768416E-01  1.894897038747E-01
C14 -1.633656484612E-01 -1.040950768416E-01 -1.894897038747E-01
C15  3.046334460585E-01  8.288544817816E-02  1.276303495030E-01
C16 -3.046334460585E-01 -8.288544817816E-02 -1.276303495030E-01
C17 -4.972260509879E-01  1.786557302339E-01  1.415096815337E-01
C18  4.972260509879E-01 -1.786557302339E-01 -1.415096815337E-01
C19 -4.537812998569E-01  2.901932369852E-01  2.161308888944E-01
C20  4.537812998569E-01 -2.901932369852E-01 -2.161308888944E-01
C21  2.598393606767E-01 -2.695103474759E-02  5.414158429610E-02
C22 -2.598393606767E-01  2.695103474759E-02 -5.414158429610E-02
C23  4.007893767581E-01 -4.781546730050E-02 -6.973243626048E-03
C24 -4.007893767581E-01  4.781546730050E-02  6.973243626048E-03
C25 -3.565649617922E-01  1.583106340754E-01  8.101977343764E-02
C26  3.565649617922E-01 -1.583106340754E-01 -8.101977343764E-02
C27 -4.191742297254E-01 -1.240100667911E-01  3.036897373697E-01
C28  4.191742297254E-01  1.240100667911E-01 -3.036897373697E-01
C29 -3.778604264457E-01 -8.416452903634E-02  3.850449085837E-01
C30  3.778604264457E-01  8.416452903634E-02 -3.850449085837E-01
C31 -1.984144161296E-01 -1.316601933370E-01  4.203126152968E-01
C32  1.984144161296E-01  1.316601933370E-01 -4.203126152968E-01
C33 -6.490307375805E-02 -2.162799570428E-01  3.727969953037E-01
C34  6.490307375805E-02  2.162799570428E-01 -3.727969953037E-01
C35 -1.009662819625E-01 -2.613819595539E-01  2.866170881070E-01
C36  1.009662819625E-01  2.613819595539E-01 -2.866170881070E-01
C37 -2.840820807490E-01 -2.144399874166E-01  2.510174826986E-01
C38  2.840820807490E-01  2.144399874166E-01 -2.510174826986E-01
C39 -3.225640602700E-01 -2.568944478346E-01  1.681003871654E-01
C40  3.225640602700E-01  2.568944478346E-01 -1.681003871654E-01
C41 -1.880955967785E-01 -3.454704360688E-01  1.165928846264E-01
C42  1.880955967785E-01  3.454704360688E-01 -1.165928846264E-01
C43 -4.639540623265E-03 -3.923814737380E-01  1.522998314953E-01
C44  4.639540623265E-03  3.923814737380E-01 -1.522998314953E-01
C45  3.222851824652E-02 -3.479606364149E-01  2.371953562670E-01
C46 -3.222851824652E-02  3.479606364149E-01 -2.371953562670E-01
C47 -2.258964983284E-01 -3.886938032393E-01  3.292808131560E-02
C48  2.258964983284E-01  3.886938032393E-01 -3.292808131560E-02
C49 -9.179414315994E-02 -4.765331443352E-01 -1.787512558616E-02
C50  9.179414315994E-02  4.765331443352E-01  1.787512558616E-02
C51  1.290682666103E-01 -4.796998880195E-01  1.021084362354E-01
C52 -1.290682666103E-01  4.796998880195E-01 -1.021084362354E-01
H53 -8.094117053035E-02  1.628857541148E-01  3.152360020343E-01
H54  8.094117053035E-02 -1.628857541148E-01 -3.152360020343E-01
H55  4.890001395079E-03  3.596152718085E-01  4.430357389843E-01
H56 -4.890001395079E-03 -3.596152718085E-01 -4.430357389843E-01
H57  3.420854546456E-01 -4.725852990182E-01  4.657784343866E-01
H58 -3.420854546456E-01  4.725852990182E-01 -4.657784343866E-01
H59 -4.050729647159E-01  4.967773645470E-01  3.614147715275E-01
H60  4.050729647159E-01 -4.967773645470E-01 -3.614147715275E-01
H61  1.566658178207E-02  3.257176828766E-02  1.792383982074E-01
H62 -1.566658178207E-02 -3.257176828766E-02 -1.792383982074E-01
H63 -3.062400043089E-01  3.619605550063E-01  2.264926538207E-01
H64  3.062400043089E-01 -3.619605550063E-01 -2.264926538207E-01
H65  1.119804081894E-01 -9.818219592573E-02  4.377408100137E-02
H66 -1.119804081894E-01  9.818219592573E-02 -4.377408100137E-02
H67 -2.087646988967E-01  2.296332089959E-01  9.141904824729E-02
H68  2.087646988967E-01 -2.296332089959E-01 -9.141904824729E-02
H69  4.447866997232E-01 -8.782796829764E-02  2.771315442994E-01
H70 -4.447866997232E-01  8.782796829764E-02 -2.771315442994E-01
H71 -4.805752804606E-01 -1.420111699137E-02  4.238060213138E-01
H72  4.805752804606E-01  1.420111699137E-02 -4.238060213138E-01
H73 -1.687178997459E-01 -9.922082424258E-02  4.853767163776E-01
H74  1.687178997459E-01  9.922082424258E-02 -4.853767163776E-01
H75  7.237827666589E-02 -2.514236173497E-01  3.989687908228E-01
H76 -7.237827666589E-02  2.514236173497E-01 -3.989687908228E-01
H77 -4.593848497864E-01 -2.218951505160E-01  1.414977087842E-01
H78  4.593848497864E-01  2.218951505160E-01 -1.414977087842E-01
H79  1.688073688439E-01 -3.830194509928E-01  2.639469854018E-01
H80 -1.688073688439E-01  3.830194509928E-01 -2.639469854018E-01
H81 -3.627160960260E-01 -3.538316376246E-01  6.267098345282E-03
H82  3.627160960260E-01  3.538316376246E-01 -6.267098345282E-03
H83  2.658047046584E-01  4.854157687086E-01  1.288159873069E-01
H84 -2.658047046584E-01 -4.854157687086E-01 -1.288159873069E-01


#===END

data_OPT_STEP_62

_symmetry_space_group_name_H-M 'P 1'
_cell_length_a      6.61892844
_cell_length_b      8.20740964
_cell_length_c     16.79512104
_cell_angle_alpha  100.621571
_cell_angle_beta   91.553799
_cell_angle_gamma   95.362924

loop_
_atom_site_label
_atom_site_fract_x
_atom_site_fract_y
_atom_site_fract_z
C1  6.606872409686E-02  2.353674207756E-01  3.251711679408E-01
C2 -6.606872409686E-02 -2.353674207756E-01 -3.251711679408E-01
C3  1.136801435264E-01  3.447005819462E-01  3.957911594028E-01
C4 -1.136801435264E-01 -3.447005819462E-01 -3.957911594028E-01
C5  3.074516028065E-01  4.406781784136E-01  4.090386113769E-01
C6 -3.074516028065E-01 -4.406781784136E-01 -4.090386113769E-01
C7  4.482323645974E-01  4.237527224276E-01  3.513817107374E-01
C8 -4.482323645974E-01 -4.237527224276E-01 -3.513817107374E-01
C9  4.059965762838E-01  3.097648923924E-01  2.758299066166E-01
C10 -4.059965762838E-01 -3.097648923924E-01 -2.758299066166E-01
C11  2.085674843035E-01  2.134167871700E-01  2.621616003818E-01
C12 -2.085674843035E-01 -2.134167871700E-01 -2.621616003818E-01
C13  1.633900988846E-01  1.040615595816E-01  1.894807856678E-01
C14 -1.633900988846E-01 -1.040615595816E-01 -1.894807856678E-01
C15  3.046458150023E-01  8.287144804718E-02  1.276249105594E-01
C16 -3.046458150023E-01 -8.287144804718E-02 -1.276249105594E-01
C17 -4.972210799936E-01  1.786552662486E-01  1.415144895828E-01
C18  4.972210799936E-01 -1.786552662486E-01 -1.415144895828E-01
C19 -4.537832447120E-01  2.902175912288E-01  2.161357176997E-01
C20  4.537832447120E-01 -2.902175912288E-01 -2.161357176997E-01
C21  2.598613925482E-01 -2.698907331942E-02  5.413540088380E-02
C22 -2.598613925482E-01  2.698907331942E-02 -5.413540088380E-02
C23  4.008043470531E-01 -4.784418935594E-02 -6.972916264745E-03
C24 -4.008043470531E-01  4.784418935594E-02  6.972916264745E-03
C25 -3.565843072437E-01  1.583534952449E-01  8.102233525030E-02
C26  3.565843072437E-01 -1.583534952449E-01 -8.102233525030E-02
C27 -4.192431342377E-01 -1.240402265493E-01  3.036624180639E-01
C28  4.192431342377E-01  1.240402265493E-01 -3.036624180639E-01
C29 -3.779361157076E-01 -8.418184728808E-02  3.850221854173E-01
C30  3.779361157076E-01  8.418184728808E-02 -3.850221854173E-01
C31 -1.984922383224E-01 -1.316498571387E-01  4.203014738885E-01
C32  1.984922383224E-01  1.316498571387E-01 -4.203014738885E-01
C33 -6.495923610352E-02 -2.162230180251E-01  3.727877981669E-01
C34  6.495923610352E-02  2.162230180251E-01 -3.727877981669E-01
C35 -1.010325413329E-01 -2.613611160309E-01  2.866067021133E-01
C36  1.010325413329E-01  2.613611160309E-01 -2.866067021133E-01
C37 -2.841379752409E-01 -2.144432605336E-01  2.509955322761E-01
C38  2.841379752409E-01  2.144432605336E-01 -2.509955322761E-01
C39 -3.225990532056E-01 -2.569042995713E-01  1.680730906305E-01
C40  3.225990532056E-01  2.569042995713E-01 -1.680730906305E-01
C41 -1.881147741523E-01 -3.454620843822E-01  1.165763632656E-01
C42  1.881147741523E-01  3.454620843822E-01 -1.165763632656E-01
C43 -4.682929557342E-03 -3.923700802752E-01  1.522986032716E-01
C44  4.682929557342E-03  3.923700802752E-01 -1.522986032716E-01
C45  3.217190908151E-02 -3.479307938469E-01  2.371975685444E-01
C46 -3.217190908151E-02  3.479307938469E-01 -2.371975685444E-01
C47 -2.258960579851E-01 -3.887044500875E-01  3.290756645214E-02
C48  2.258960579851E-01  3.887044500875E-01 -3.290756645214E-02
C49 -9.178544266883E-02 -4.765406042422E-01 -1.788258635171E-02
C50  9.178544266883E-02  4.765406042422E-01  1.788258635171E-02
C51  1.290388435084E-01 -4.796728373534E-01  1.021193684354E-01
C52 -1.290388435084E-01  4.796728373534E-01 -1.021193684354E-01
H53 -8.088601976934E-02  1.628035932517E-01  3.152321924096E-01
H54  8.088601976934E-02 -1.628035932517E-01 -3.152321924096E-01
H55  4.881984295291E-03  3.596476653379E-01  4.430209826701E-01
H56 -4.881984295291E-03 -3.596476653379E-01 -4.430209826701E-01
H57  3.420605101958E-01 -4.724701150212E-01  4.657566518624E-01
H58 -3.420605101958E-01  4.724701150212E-01 -4.657566518624E-01
H59 -4.050760507349E-01  4.968364050376E-01  3.614118917060E-01
H60  4.050760507349E-01 -4.968364050376E-01 -3.614118917060E-01
H61  1.571571398472E-02  3.247875153800E-02  1.792344277142E-01
H62 -1.571571398472E-02 -3.247875153800E-02 -1.792344277142E-01
H63 -3.062576081308E-01  3.620188711905E-01  2.265025659650E-01
H64  3.062576081308E-01 -3.620188711905E-01 -2.265025659650E-01
H65  1.120157642836E-01 -9.825634844008E-02  4.376759386112E-02
H66 -1.120157642836E-01  9.825634844008E-02 -4.376759386112E-02
H67 -2.087839650913E-01  2.296865265709E-01  9.143177400485E-02
H68  2.087839650913E-01 -2.296865265709E-01 -9.143177400485E-02
H69  4.447835385541E-01 -8.777817025300E-02  2.770912360130E-01
H70 -4.447835385541E-01  8.777817025300E-02 -2.770912360130E-01
H71 -4.806481678792E-01 -1.420655056920E-02  4.237749969890E-01
H72  4.806481678792E-01  1.420655056920E-02 -4.237749969890E-01
H73 -1.687658565059E-01 -9.917386175963E-02  4.853650873552E-01
H74  1.687658565059E-01  9.917386175963E-02 -4.853650873552E-01
H75  7.234141529571E-02 -2.513349534380E-01  3.989588327797E-01
H76 -7.234141529571E-02  2.513349534380E-01 -3.989588327797E-01
H77 -4.593951907468E-01 -2.218944518341E-01  1.414566616261E-01
H78  4.593951907468E-01  2.218944518341E-01 -1.414566616261E-01
H79  1.687332732214E-01 -3.829880605610E-01  2.639606821887E-01
H80 -1.687332732214E-01  3.829880605610E-01 -2.639606821887E-01
H81 -3.626822019899E-01 -3.538254794498E-01  6.230476673896E-03
H82  3.626822019899E-01  3.538254794498E-01 -6.230476673896E-03
H83  2.657265574480E-01  4.854090546835E-01  1.288441334526E-01
H84 -2.657265574480E-01 -4.854090546835E-01 -1.288441334526E-01


#===END

data_OPT_STEP_63

_symmetry_space_group_name_H-M 'P 1'
_cell_length_a      6.62179714
_cell_length_b      8.19912859
_cell_length_c     16.79184231
_cell_angle_alpha  100.585914
_cell_angle_beta   91.556169
_cell_angle_gamma   95.370643

loop_
_atom_site_label
_atom_site_fract_x
_atom_site_fract_y
_atom_site_fract_z
C1  6.613660250448E-02  2.353470271582E-01  3.251432315119E-01
C2 -6.613660250448E-02 -2.353470271582E-01 -3.251432315119E-01
C3  1.137175498659E-01  3.447370694052E-01  3.957588559431E-01
C4 -1.137175498659E-01 -3.447370694052E-01 -3.957588559431E-01
C5  3.074316793656E-01  4.407697952203E-01  4.090170670591E-01
C6 -3.074316793656E-01 -4.407697952203E-01 -4.090170670591E-01
C7  4.481901625003E-01  4.238358363588E-01  3.513733771496E-01
C8 -4.481901625003E-01 -4.238358363588E-01 -3.513733771496E-01
C9  4.059665022841E-01  3.098228615864E-01  2.758195177257E-01
C10 -4.059665022841E-01 -3.098228615864E-01 -2.758195177257E-01
C11  2.086106503271E-01  2.133960474441E-01  2.621457801539E-01
C12 -2.086106503271E-01 -2.133960474441E-01 -2.621457801539E-01
C13  1.634675159357E-01  1.039901866546E-01  1.894665217057E-01
C14 -1.634675159357E-01 -1.039901866546E-01 -1.894665217057E-01
C15  3.046858867233E-01  8.283607993890E-02  1.276163551776E-01
C16 -3.046858867233E-01 -8.283607993890E-02 -1.276163551776E-01
C17 -4.972717489798E-01  1.787295195814E-01  1.415050831941E-01
C18  4.972717489798E-01 -1.787295195814E-01 -1.415050831941E-01
C19 -4.538472022942E-01  2.903030416354E-01  2.161329177295E-01
C20  4.538472022942E-01 -2.903030416354E-01 -2.161329177295E-01
C21  2.599080625630E-01 -2.701786376183E-02  5.411371318119E-02
C22 -2.599080625630E-01  2.701786376183E-02 -5.411371318119E-02
C23  4.008058404028E-01 -4.782081346328E-02 -6.992419843411E-03
C24 -4.008058404028E-01  4.782081346328E-02  6.992419843411E-03
C25 -3.566368590785E-01  1.584020740122E-01  8.103510747143E-02
C26  3.566368590785E-01 -1.584020740122E-01 -8.103510747143E-02
C27 -4.193161871200E-01 -1.240358534116E-01  3.036052681382E-01
C28  4.193161871200E-01  1.240358534116E-01 -3.036052681382E-01
C29 -3.780412075001E-01 -8.415243312588E-02  3.849713364701E-01
C30  3.780412075001E-01  8.415243312588E-02 -3.849713364701E-01
C31 -1.986422364540E-01 -1.315992159089E-01  4.202746388046E-01
C32  1.986422364540E-01  1.315992159089E-01 -4.202746388046E-01
C33 -6.512098640754E-02 -2.161683786995E-01  3.727766655478E-01
C34  6.512098640754E-02  2.161683786995E-01 -3.727766655478E-01
C35 -1.011444519701E-01 -2.613030435757E-01  2.865892876949E-01
C36  1.011444519701E-01  2.613030435757E-01 -2.865892876949E-01
C37 -2.842133197173E-01 -2.144270127272E-01  2.509542461395E-01
C38  2.842133197173E-01  2.144270127272E-01 -2.509542461395E-01
C39 -3.226362307666E-01 -2.569162058436E-01  1.680250841786E-01
C40  3.226362307666E-01  2.569162058436E-01 -1.680250841786E-01
C41 -1.881372142165E-01 -3.454484588989E-01  1.165470110929E-01
C42  1.881372142165E-01  3.454484588989E-01 -1.165470110929E-01
C43 -4.736461919761E-03 -3.923038227803E-01  1.522950855408E-01
C44  4.736461919761E-03  3.923038227803E-01 -1.522950855408E-01
C45  3.207504850032E-02 -3.478425390351E-01  2.371990549072E-01
C46 -3.207504850032E-02  3.478425390351E-01 -2.371990549072E-01
C47 -2.258690136392E-01 -3.887148309910E-01  3.287114756271E-02
C48  2.258690136392E-01  3.887148309910E-01 -3.287114756271E-02
C49 -9.175161637474E-02 -4.765404647005E-01 -1.789762711281E-02
C50  9.175161637474E-02  4.765404647005E-01  1.789762711281E-02
C51  1.289689597799E-01 -4.796298375774E-01  1.021393566562E-01
C52 -1.289689597799E-01  4.796298375774E-01 -1.021393566562E-01
H53 -8.078021188431E-02  1.627523322309E-01  3.151984451578E-01
H54  8.078021188431E-02 -1.627523322309E-01 -3.151984451578E-01
H55  4.918081064944E-03  3.596967630684E-01  4.429813631984E-01
H56 -4.918081064944E-03 -3.596967630684E-01 -4.429813631984E-01
H57  3.420382405796E-01 -4.723592684305E-01  4.657356564077E-01
H58 -3.420382405796E-01  4.723592684305E-01 -4.657356564077E-01
H59 -4.051613167875E-01  4.969689306064E-01  3.614036683532E-01
H60  4.051613167875E-01 -4.969689306064E-01 -3.614036683532E-01
H61  1.582783850128E-02  3.238153577385E-02  1.792095240672E-01
H62 -1.582783850128E-02 -3.238153577385E-02 -1.792095240672E-01
H63 -3.063616098858E-01  3.621366142935E-01  2.265114138867E-01
H64  3.063616098858E-01 -3.621366142935E-01 -2.265114138867E-01
H65  1.121222644850E-01 -9.835754834301E-02  4.374628908774E-02
H66 -1.121222644850E-01  9.835754834301E-02 -4.374628908774E-02
H67 -2.088684349760E-01  2.297517913235E-01  9.146125934025E-02
H68  2.088684349760E-01 -2.297517913235E-01 -9.146125934025E-02
H69  4.447387100624E-01 -8.779296758279E-02  2.770191685558E-01
H70 -4.447387100624E-01  8.779296758279E-02 -2.770191685558E-01
H71 -4.807597794420E-01 -1.418509078175E-02  4.237093510837E-01
H72  4.807597794420E-01  1.418509078175E-02 -4.237093510837E-01
H73 -1.689222032303E-01 -9.910090872389E-02  4.853402146268E-01
H74  1.689222032303E-01  9.910090872389E-02 -4.853402146268E-01
H75  7.217213486320E-02 -2.512367865520E-01  3.989573138384E-01
H76 -7.217213486320E-02  2.512367865520E-01 -3.989573138384E-01
H77 -4.594032570025E-01 -2.219355019871E-01  1.413894439937E-01
H78  4.594032570025E-01  2.219355019871E-01 -1.413894439937E-01
H79  1.685938790846E-01 -3.828889596187E-01  2.639818172468E-01
H80 -1.685938790846E-01  3.828889596187E-01 -2.639818172468E-01
H81 -3.626478677395E-01 -3.539047064240E-01  6.175124129808E-03
H82  3.626478677395E-01  3.539047064240E-01 -6.175124129808E-03
H83  2.655951291424E-01  4.854443847806E-01  1.288879591097E-01
H84 -2.655951291424E-01 -4.854443847806E-01 -1.288879591097E-01


#===END

data_OPT_STEP_64

_symmetry_space_group_name_H-M 'P 1'
_cell_length_a      6.62488302
_cell_length_b      8.19095730
_cell_length_c     16.78848831
_cell_angle_alpha  100.548569
_cell_angle_beta   91.558851
_cell_angle_gamma   95.378133

loop_
_atom_site_label
_atom_site_fract_x
_atom_site_fract_y
_atom_site_fract_z
C1  6.618482065426E-02  2.353455544401E-01  3.251042219805E-01
C2 -6.618482065426E-02 -2.353455544401E-01 -3.251042219805E-01
C3  1.137510047757E-01  3.447538157042E-01  3.957244923484E-01
C4 -1.137510047757E-01 -3.447538157042E-01 -3.957244923484E-01
C5  3.074199023504E-01  4.408129371462E-01  4.090005751446E-01
C6 -3.074199023504E-01 -4.408129371462E-01 -4.090005751446E-01
C7  4.481655508328E-01  4.238585919606E-01  3.513756415847E-01
C8 -4.481655508328E-01 -4.238585919607E-01 -3.513756415847E-01
C9  4.059656699314E-01  3.098106435558E-01  2.758225477512E-01
C10 -4.059656699314E-01 -3.098106435558E-01 -2.758225477512E-01
C11  2.086368002457E-01  2.133939094590E-01  2.621214107490E-01
C12 -2.086368002457E-01 -2.133939094590E-01 -2.621214107490E-01
C13  1.635074751035E-01  1.039823815516E-01  1.894336921579E-01
C14 -1.635074751035E-01 -1.039823815516E-01 -1.894336921579E-01
C15  3.047105408018E-01  8.282432373567E-02  1.275998499167E-01
C16 -3.047105408018E-01 -8.282432373567E-02 -1.275998499167E-01
C17 -4.972731605032E-01  1.787067381144E-01  1.415177714858E-01
C18  4.972731605032E-01 -1.787067381144E-01 -1.415177714858E-01
C19 -4.538696055053E-01  2.902981194195E-01  2.161493340123E-01
C20  4.538696055053E-01 -2.902981194195E-01 -2.161493340123E-01
C21  2.599776563026E-01 -2.708670260553E-02  5.410122746784E-02
C22 -2.599776563026E-01  2.708670260553E-02 -5.410122746784E-02
C23  4.008714906766E-01 -4.791006700129E-02 -6.983453604808E-03
C24 -4.008714906766E-01  4.791006700129E-02  6.983453604808E-03
C25 -3.567034638648E-01  1.584692414095E-01  8.104108870089E-02
C26  3.567034638648E-01 -1.584692414095E-01 -8.104108870089E-02
C27 -4.193522430780E-01 -1.240338273127E-01  3.035462010358E-01
C28  4.193522430780E-01  1.240338273127E-01 -3.035462010358E-01
C29 -3.781074367727E-01 -8.412076171953E-02  3.849174530188E-01
C30  3.781074367727E-01  8.412076171953E-02 -3.849174530188E-01
C31 -1.987174785146E-01 -1.314870934784E-01  4.202433245970E-01
C32  1.987174785146E-01  1.314870934784E-01 -4.202433245970E-01
C33 -6.520510082296E-02 -2.160459200519E-01  3.727630397428E-01
C34  6.520510082296E-02  2.160459200519E-01 -3.727630397428E-01
C35 -1.012314711553E-01 -2.612535055129E-01  2.865747516001E-01
C36  1.012314711553E-01  2.612535055129E-01 -2.865747516001E-01
C37 -2.842637466957E-01 -2.144246682651E-01  2.509144490353E-01
C38  2.842637466957E-01  2.144246682651E-01 -2.509144490353E-01
C39 -3.226439125777E-01 -2.569280148117E-01  1.679786107668E-01
C40  3.226439125777E-01  2.569280148117E-01 -1.679786107668E-01
C41 -1.881608994751E-01 -3.454676918390E-01  1.165209539499E-01
C42  1.881608994751E-01  3.454676918390E-01 -1.165209539499E-01
C43 -4.821405769046E-03 -3.923100825785E-01  1.522975105951E-01
C44  4.821405769046E-03  3.923100825785E-01 -1.522975105951E-01
C45  3.195571451337E-02 -3.478221814801E-01  2.372060651329E-01
C46 -3.195571451337E-02  3.478221814801E-01 -2.372060651329E-01
C47 -2.258390080219E-01 -3.887385445948E-01  3.283721945653E-02
C48  2.258390080219E-01  3.887385445948E-01 -3.283721945653E-02
C49 -9.173419293987E-02 -4.765659019271E-01 -1.791083847426E-02
C50  9.173419293987E-02  4.765659019271E-01  1.791083847426E-02
C51  1.288930222554E-01 -4.796094513182E-01  1.021604036530E-01
C52 -1.288930222554E-01  4.796094513182E-01 -1.021604036530E-01
H53 -8.069558157008E-02  1.627318696086E-01  3.151496244770E-01
H54  8.069558157008E-02 -1.627318696086E-01 -3.151496244770E-01
H55  4.961435404730E-03  3.597232361881E-01  4.429357151429E-01
H56 -4.961435404730E-03 -3.597232361881E-01 -4.429357151429E-01
H57  3.420131355784E-01 -4.722931038943E-01  4.657183451991E-01
H58 -3.420131355784E-01  4.722931038943E-01 -4.657183451991E-01
H59 -4.052408532325E-01  4.970485550645E-01  3.614069265599E-01
H60  4.052408532325E-01 -4.970485550645E-01 -3.614069265599E-01
H61  1.590374598637E-02  3.235582384085E-02  1.791636718020E-01
H62 -1.590374598637E-02 -3.235582384085E-02 -1.791636718020E-01
H63 -3.064299832735E-01  3.621682437280E-01  2.265372767822E-01
H64  3.064299832735E-01 -3.621682437280E-01 -2.265372767822E-01
H65  1.122287518567E-01 -9.844374705094E-02  4.371959689152E-02
H66 -1.122287518567E-01  9.844374705094E-02 -4.371959689152E-02
H67 -2.090082306663E-01  2.299032563926E-01  9.146528943536E-02
H68  2.090082306663E-01 -2.299032563926E-01 -9.146528943536E-02
H69  4.446848512101E-01 -8.788536635070E-02  2.769486506391E-01
H70 -4.446848512101E-01  8.788536635070E-02 -2.769486506391E-01
H71 -4.808315354448E-01 -1.416338594275E-02  4.236388488401E-01
H72  4.808315354448E-01  1.416338594275E-02 -4.236388488401E-01
H73 -1.690180106839E-01 -9.897365844057E-02  4.853125451982E-01
H74  1.690180106839E-01  9.897365844057E-02 -4.853125451982E-01
H75  7.206599368172E-02 -2.510825232813E-01  3.989562971103E-01
H76 -7.206599368172E-02  2.510825232813E-01 -3.989562971103E-01
H77 -4.593863039635E-01 -2.219884425426E-01  1.413248289479E-01
H78  4.593863039635E-01  2.219884425426E-01 -1.413248289479E-01
H79  1.684497061622E-01 -3.828295277542E-01  2.640070376411E-01
H80 -1.684497061622E-01  3.828295277542E-01 -2.640070376411E-01
H81 -3.625567153547E-01 -3.539187093523E-01  6.118105814169E-03
H82  3.625567153547E-01  3.539187093523E-01 -6.118105814169E-03
H83  2.655029506870E-01  4.855195007712E-01  1.289276130021E-01
H84 -2.655029506870E-01 -4.855195007712E-01 -1.289276130021E-01


#===END

data_OPT_STEP_65

_symmetry_space_group_name_H-M 'P 1'
_cell_length_a      6.62891605
_cell_length_b      8.18305230
_cell_length_c     16.78520446
_cell_angle_alpha  100.513306
_cell_angle_beta   91.559600
_cell_angle_gamma   95.381561

loop_
_atom_site_label
_atom_site_fract_x
_atom_site_fract_y
_atom_site_fract_z
C1  6.628192816982E-02  2.353519014376E-01  3.250743197060E-01
C2 -6.628192816982E-02 -2.353519014376E-01 -3.250743197060E-01
C3  1.138236236280E-01  3.447655393303E-01  3.957041857695E-01
C4 -1.138236236280E-01 -3.447655393303E-01 -3.957041857695E-01
C5  3.074335887388E-01  4.408132902575E-01  4.090055819267E-01
C6 -3.074335887388E-01 -4.408132902575E-01 -4.090055819267E-01
C7  4.481214547112E-01  4.238868482841E-01  3.513843074648E-01
C8 -4.481214547112E-01 -4.238868482841E-01 -3.513843074648E-01
C9  4.059411670436E-01  3.098382145920E-01  2.758220772321E-01
C10 -4.059411670436E-01 -3.098382145920E-01 -2.758220772321E-01
C11  2.086948486160E-01  2.133988396501E-01  2.621035189995E-01
C12 -2.086948486160E-01 -2.133988396501E-01 -2.621035189995E-01
C13  1.636022841694E-01  1.039670622143E-01  1.894100749269E-01
C14 -1.636022841694E-01 -1.039670622143E-01 -1.894100749269E-01
C15  3.047632976220E-01  8.281360906581E-02  1.275877487174E-01
C16 -3.047632976220E-01 -8.281360906581E-02 -1.275877487174E-01
C17 -4.972991295243E-01  1.787092524740E-01  1.415255878988E-01
C18  4.972991295243E-01 -1.787092524740E-01 -1.415255878988E-01
C19 -4.539343208665E-01  2.903245262519E-01  2.161605188565E-01
C20  4.539343208665E-01 -2.903245262519E-01 -2.161605188565E-01
C21  2.600560599921E-01 -2.709297313351E-02  5.407849394787E-02
C22 -2.600560599921E-01  2.709297313351E-02 -5.407849394787E-02
C23  4.008988971115E-01 -4.789444826867E-02 -6.999074326637E-03
C24 -4.008988971115E-01  4.789444826867E-02  6.999074326637E-03
C25 -3.567582106849E-01  1.584529544947E-01  8.106582515407E-02
C26  3.567582106849E-01 -1.584529544947E-01 -8.106582515407E-02
C27 -4.193671531183E-01 -1.240472203823E-01  3.034971525516E-01
C28  4.193671531183E-01  1.240472203823E-01 -3.034971525516E-01
C29 -3.781544478020E-01 -8.408751703108E-02  3.848728100625E-01
C30  3.781544478020E-01  8.408751703108E-02 -3.848728100625E-01
C31 -1.988229474113E-01 -1.314090067604E-01  4.202214794138E-01
C32  1.988229474113E-01  1.314090067604E-01 -4.202214794138E-01
C33 -6.533101071494E-02 -2.159604477957E-01  3.727569149725E-01
C34  6.533101071494E-02  2.159604477957E-01 -3.727569149725E-01
C35 -1.013236478980E-01 -2.612078629682E-01  2.865643120332E-01
C36  1.013236478980E-01  2.612078629682E-01 -2.865643120332E-01
C37 -2.842956217738E-01 -2.144277714919E-01  2.508817822916E-01
C38  2.842956217738E-01  2.144277714919E-01 -2.508817822916E-01
C39 -3.226423451634E-01 -2.569746793230E-01  1.679420304281E-01
C40  3.226423451634E-01  2.569746793230E-01 -1.679420304281E-01
C41 -1.881637932354E-01 -3.454834950541E-01  1.164993180830E-01
C42  1.881637932354E-01  3.454834950541E-01 -1.164993180830E-01
C43 -4.889730312949E-03 -3.922876356140E-01  1.522981181368E-01
C44  4.889730312949E-03  3.922876356140E-01 -1.522981181368E-01
C45  3.185013647851E-02 -3.477642344577E-01  2.372108730254E-01
C46 -3.185013647851E-02  3.477642344577E-01 -2.372108730254E-01
C47 -2.258044011090E-01 -3.887898744445E-01  3.281110821076E-02
C48  2.258044011090E-01  3.887898744445E-01 -3.281110821076E-02
C49 -9.170060459657E-02 -4.765829867107E-01 -1.792214099903E-02
C50  9.170060459657E-02  4.765829867107E-01  1.792214099903E-02
C51  1.288134462659E-01 -4.795699739716E-01  1.021768098559E-01
C52 -1.288134462659E-01  4.795699739716E-01 -1.021768098559E-01
H53 -8.055259827787E-02  1.627501621502E-01  3.151017667453E-01
H54  8.055259827787E-02 -1.627501621502E-01 -3.151017667453E-01
H55  5.067956599831E-03  3.597379254653E-01  4.429069573522E-01
H56 -5.067956599831E-03 -3.597379254653E-01 -4.429069573522E-01
H57  3.419911524706E-01 -4.722581560755E-01  4.657222446521E-01
H58 -3.419911524706E-01  4.722581560755E-01 -4.657222446521E-01
H59 -4.053302419620E-01  4.970631091322E-01  3.614335410993E-01
H60  4.053302419620E-01 -4.970631091322E-01 -3.614335410993E-01
H61  1.606203589440E-02  3.232187345598E-02  1.791273718823E-01
H62 -1.606203589440E-02 -3.232187345598E-02 -1.791273718823E-01
H63 -3.065378112918E-01  3.621766903558E-01  2.265701998472E-01
H64  3.065378112918E-01 -3.621766903558E-01 -2.265701998472E-01
H65  1.123391969064E-01 -9.840572999207E-02  4.366843748285E-02
H66 -1.123391969064E-01  9.840572999207E-02 -4.366843748285E-02
H67 -2.091360817644E-01  2.299207841319E-01  9.149939047829E-02
H68  2.091360817644E-01 -2.299207841319E-01 -9.149939047829E-02
H69  4.447318192751E-01 -8.790454454282E-02  2.768817941479E-01
H70 -4.447318192751E-01  8.790454454282E-02 -2.768817941479E-01
H71 -4.808607605626E-01 -1.411995414219E-02  4.235780905404E-01
H72  4.808607605626E-01  1.411995414219E-02 -4.235780905404E-01
H73 -1.691451809992E-01 -9.886494944243E-02  4.852942669130E-01
H74  1.691451809992E-01  9.886494944243E-02 -4.852942669130E-01
H75  7.190324472600E-02 -2.509562953500E-01  3.989632176230E-01
H76 -7.190324472600E-02  2.509562953500E-01 -3.989632176230E-01
H77 -4.593223045593E-01 -2.220466363291E-01  1.412695255866E-01
H78  4.593223045593E-01  2.220466363291E-01 -1.412695255866E-01
H79  1.682879136303E-01 -3.827529377318E-01  2.640303582444E-01
H80 -1.682879136303E-01  3.827529377318E-01 -2.640303582444E-01
H81 -3.624360828465E-01 -3.539470864507E-01  6.070373477043E-03
H82  3.624360828465E-01  3.539470864507E-01 -6.070373477043E-03
H83  2.653812424975E-01  4.855985154692E-01  1.289616860842E-01
H84 -2.653812424975E-01 -4.855985154692E-01 -1.289616860842E-01


#===END

data_OPT_STEP_66

_symmetry_space_group_name_H-M 'P 1'
_cell_length_a      6.63315494
_cell_length_b      8.17529114
_cell_length_c     16.78191255
_cell_angle_alpha  100.479021
_cell_angle_beta   91.564415
_cell_angle_gamma   95.386494

loop_
_atom_site_label
_atom_site_fract_x
_atom_site_fract_y
_atom_site_fract_z
C1  6.635939251830E-02  2.353688241434E-01  3.250237091757E-01
C2 -6.635939251830E-02 -2.353688241434E-01 -3.250237091757E-01
C3  1.138813119834E-01  3.447727030311E-01  3.956699630014E-01
C4 -1.138813119834E-01 -3.447727030311E-01 -3.956699630014E-01
C5  3.074242789060E-01  4.408285911824E-01  4.090029020584E-01
C6 -3.074242789060E-01 -4.408285911824E-01 -4.090029020584E-01
C7  4.480837106400E-01  4.238774393131E-01  3.514037895786E-01
C8 -4.480837106400E-01 -4.238774393131E-01 -3.514037895786E-01
C9  4.059238039267E-01  3.098320836536E-01  2.758282402328E-01
C10 -4.059238039267E-01 -3.098320836536E-01 -2.758282402328E-01
C11  2.087364498466E-01  2.134129074072E-01  2.620720634049E-01
C12 -2.087364498466E-01 -2.134129074072E-01 -2.620720634049E-01
C13  1.636639648244E-01  1.039981670143E-01  1.893614821420E-01
C14 -1.636639648244E-01 -1.039981670143E-01 -1.893614821420E-01
C15  3.047932689232E-01  8.283489603504E-02  1.275603855743E-01
C16 -3.047932689232E-01 -8.283489603504E-02 -1.275603855743E-01
C17 -4.973415271992E-01  1.787323468858E-01  1.415303312562E-01
C18  4.973415271992E-01 -1.787323468858E-01 -1.415303312562E-01
C19 -4.539927103797E-01  2.903231460325E-01  2.161832904798E-01
C20  4.539927103797E-01 -2.903231460325E-01 -2.161832904798E-01
C21  2.601195947787E-01 -2.707708292260E-02  5.403973987732E-02
C22 -2.601195947787E-01  2.707708292260E-02 -5.403973987732E-02
C23  4.009347169931E-01 -4.789449221952E-02 -7.015244726315E-03
C24 -4.009347169931E-01  4.789449221952E-02  7.015244726315E-03
C25 -3.568322215715E-01  1.584680848562E-01  8.109049514926E-02
C26  3.568322215715E-01 -1.584680848562E-01 -8.109049514926E-02
C27 -4.193272506087E-01 -1.240340350582E-01  3.034380965458E-01
C28  4.193272506087E-01  1.240340350582E-01 -3.034380965458E-01
C29 -3.781534010394E-01 -8.403800219371E-02  3.848208317566E-01
C30  3.781534010394E-01  8.403800219371E-02 -3.848208317566E-01
C31 -1.989018731008E-01 -1.313325271960E-01  4.201987540466E-01
C32  1.989018731008E-01  1.313325271960E-01 -4.201987540466E-01
C33 -6.544426521355E-02 -2.158831360861E-01  3.727534917479E-01
C34  6.544426521355E-02  2.158831360861E-01 -3.727534917479E-01
C35 -1.013894698915E-01 -2.611509663565E-01  2.865532595788E-01
C36  1.013894698915E-01  2.611509663565E-01 -2.865532595788E-01
C37 -2.842904844740E-01 -2.144173985331E-01  2.508435738242E-01
C38  2.842904844740E-01  2.144173985331E-01 -2.508435738242E-01
C39 -3.225897787299E-01 -2.569838688652E-01  1.678965622245E-01
C40  3.225897787299E-01  2.569838688652E-01 -1.678965622245E-01
C41 -1.881424467139E-01 -3.454872622420E-01  1.164736031092E-01
C42  1.881424467139E-01  3.454872622420E-01 -1.164736031092E-01
C43 -4.919522558229E-03 -3.922190860058E-01  1.522967469779E-01
C44  4.919522558229E-03  3.922190860058E-01 -1.522967469779E-01
C45  3.177414873223E-02 -3.476757871040E-01  2.372163002814E-01
C46 -3.177414873223E-02  3.476757871040E-01 -2.372163002814E-01
C47 -2.257464569086E-01 -3.888269615895E-01  3.277976963719E-02
C48  2.257464569086E-01  3.888269615895E-01 -3.277976963719E-02
C49 -9.167523318757E-02 -4.766188290619E-01 -1.793428381654E-02
C50  9.167523318757E-02  4.766188290619E-01  1.793428381654E-02
C51  1.287633131364E-01 -4.794832079868E-01  1.021932454635E-01
C52 -1.287633131364E-01  4.794832079868E-01 -1.021932454635E-01
H53 -8.041670396682E-02  1.627519098768E-01  3.150321401592E-01
H54  8.041670396682E-02 -1.627519098768E-01 -3.150321401592E-01
H55  5.152349141131E-03  3.597443751026E-01  4.428575037016E-01
H56 -5.152349141131E-03 -3.597443751026E-01 -4.428575037016E-01
H57  3.419747480006E-01 -4.722488201816E-01  4.657294513899E-01
H58 -3.419747480006E-01  4.722488201816E-01 -4.657294513899E-01
H59 -4.054296421361E-01  4.970713070743E-01  3.614712997517E-01
H60  4.054296421361E-01 -4.970713070743E-01 -3.614712997517E-01
H61  1.617264776430E-02  3.236458885579E-02  1.790525595717E-01
H62 -1.617264776430E-02 -3.236458885579E-02 -1.790525595717E-01
H63 -3.066766473071E-01  3.622183068007E-01  2.266063244705E-01
H64  3.066766473071E-01 -3.622183068007E-01 -2.266063244705E-01
H65  1.124889968849E-01 -9.844731700253E-02  4.362019826314E-02
H66 -1.124889968849E-01  9.844731700253E-02 -4.362019826314E-02
H67 -2.092299192818E-01  2.298667334410E-01  9.156491011714E-02
H68  2.092299192818E-01 -2.298667334410E-01 -9.156491011714E-02
H69  4.448456580437E-01 -8.789055767302E-02  2.768003259144E-01
H70 -4.448456580437E-01  8.789055767302E-02 -2.768003259144E-01
H71 -4.808290495375E-01 -1.404986721499E-02  4.235059344212E-01
H72  4.808290495375E-01  1.404986721499E-02 -4.235059344212E-01
H73 -1.692382979590E-01 -9.874544691653E-02  4.852752136883E-01
H74  1.692382979590E-01  9.874544691653E-02 -4.852752136883E-01
H75  7.174489565033E-02 -2.508350116363E-01  3.989780105130E-01
H76 -7.174489565033E-02  2.508350116363E-01 -3.989780105130E-01
H77 -4.592294183502E-01 -2.221089680249E-01  1.412055476177E-01
H78  4.592294183502E-01  2.221089680249E-01 -1.412055476177E-01
H79  1.681745441120E-01 -3.826091137708E-01  2.640542892879E-01
H80 -1.681745441120E-01  3.826091137708E-01 -2.640542892879E-01
H81 -3.623819901579E-01 -3.541016029974E-01  6.024694149186E-03
H82  3.623819901579E-01  3.541016029974E-01 -6.024694149186E-03
H83  2.652641568814E-01  4.856954225489E-01  1.289999252224E-01
H84 -2.652641568814E-01 -4.856954225489E-01 -1.289999252224E-01


#===END

data_OPT_STEP_67

_symmetry_space_group_name_H-M 'P 1'
_cell_length_a      6.63815373
_cell_length_b      8.16793892
_cell_length_c     16.77900860
_cell_angle_alpha  100.449366
_cell_angle_beta   91.567346
_cell_angle_gamma   95.392623

loop_
_atom_site_label
_atom_site_fract_x
_atom_site_fract_y
_atom_site_fract_z
C1  6.651196627001E-02  2.353926530827E-01  3.249802659643E-01
C2 -6.651196627001E-02 -2.353926530827E-01 -3.249802659643E-01
C3  1.140007155867E-01  3.447979474711E-01  3.956401846147E-01
C4 -1.140007155867E-01 -3.447979474711E-01 -3.956401846147E-01
C5  3.074586010066E-01  4.408428204068E-01  4.090069907415E-01
C6 -3.074586010066E-01 -4.408428204068E-01 -4.090069907415E-01
C7  4.480505446852E-01  4.239053085808E-01  3.514208991610E-01
C8 -4.480505446852E-01 -4.239053085808E-01 -3.514208991610E-01
C9  4.059182526917E-01  3.098626010919E-01  2.758313245433E-01
C10 -4.059182526917E-01 -3.098626010919E-01 -2.758313245433E-01
C11  2.088293013806E-01  2.134376308441E-01  2.620455941113E-01
C12 -2.088293013806E-01 -2.134376308441E-01 -2.620455941113E-01
C13  1.637872578700E-01  1.040229349204E-01  1.893218967746E-01
C14 -1.637872578700E-01 -1.040229349204E-01 -1.893218967746E-01
C15  3.048577343961E-01  8.285862671853E-02  1.275366824856E-01
C16 -3.048577343961E-01 -8.285862671853E-02 -1.275366824856E-01
C17 -4.973656996499E-01  1.787439345986E-01  1.415404499189E-01
C18  4.973656996499E-01 -1.787439345986E-01 -1.415404499189E-01
C19 -4.540551427540E-01  2.903483023886E-01  2.162029795445E-01
C20  4.540551427540E-01 -2.903483023886E-01 -2.162029795445E-01
C21  2.602131666975E-01 -2.705097008715E-02  5.400215908611E-02
C22 -2.602131666975E-01  2.705097008715E-02 -5.400215908611E-02
C23  4.009757950951E-01 -4.788282548928E-02 -7.033693855306E-03
C24 -4.009757950951E-01  4.788282548928E-02  7.033693855306E-03
C25 -3.569041953510E-01  1.584580806292E-01  8.112148595330E-02
C26  3.569041953510E-01 -1.584580806292E-01 -8.112148595330E-02
C27 -4.192863789516E-01 -1.240371583470E-01  3.033779238136E-01
C28  4.192863789516E-01  1.240371583470E-01 -3.033779238136E-01
C29 -3.781519473302E-01 -8.398017907706E-02  3.847660590976E-01
C30  3.781519473302E-01  8.398017907706E-02 -3.847660590976E-01
C31 -1.989901808693E-01 -1.312160152952E-01  4.201698119025E-01
C32  1.989901808693E-01  1.312160152952E-01 -4.201698119025E-01
C33 -6.558828885299E-02 -2.157787440466E-01  3.727465007955E-01
C34  6.558828885299E-02  2.157787440466E-01 -3.727465007955E-01
C35 -1.014805166610E-01 -2.610890443108E-01  2.865412409588E-01
C36  1.014805166610E-01  2.610890443108E-01 -2.865412409588E-01
C37 -2.842867375688E-01 -2.144120220292E-01  2.508041093285E-01
C38  2.842867375688E-01  2.144120220292E-01 -2.508041093285E-01
C39 -3.225463266222E-01 -2.570327098386E-01  1.678519392194E-01
C40  3.225463266222E-01  2.570327098386E-01 -1.678519392194E-01
C41 -1.881289896620E-01 -3.455137065873E-01  1.164479029800E-01
C42  1.881289896620E-01  3.455137065873E-01 -1.164479029800E-01
C43 -4.999397238668E-03 -3.921887014849E-01  1.522991243939E-01
C44  4.999397238668E-03  3.921887014849E-01 -1.522991243939E-01
C45  3.164666413236E-02 -3.475977169126E-01  2.372232738134E-01
C46 -3.164666413236E-02  3.475977169126E-01 -2.372232738134E-01
C47 -2.256784096965E-01 -3.888873714989E-01  3.274765296631E-02
C48  2.256784096965E-01  3.888873714989E-01 -3.274765296631E-02
C49 -9.162695286232E-02 -4.766442758207E-01 -1.794858551436E-02
C50  9.162695286232E-02  4.766442758207E-01  1.794858551436E-02
C51  1.286548949671E-01 -4.794305262884E-01  1.022140934406E-01
C52 -1.286548949671E-01  4.794305262884E-01 -1.022140934406E-01
H53 -8.020879875559E-02  1.627949314686E-01  3.149593891766E-01
H54  8.020879875559E-02 -1.627949314686E-01 -3.149593891766E-01
H55  5.311815334844E-03  3.597641722266E-01  4.428084064128E-01
H56 -5.311815334844E-03 -3.597641722266E-01 -4.428084064128E-01
H57  3.419926049634E-01 -4.722399705312E-01  4.657456087836E-01
H58 -3.419926049634E-01  4.722399705312E-01 -4.657456087836E-01
H59 -4.055262499788E-01  4.970909036894E-01  3.615165869201E-01
H60  4.055262499788E-01 -4.970909036894E-01 -3.615165869201E-01
H61  1.636412879041E-02  3.239532912041E-02  1.789876161432E-01
H62 -1.636412879041E-02 -3.239532912041E-02 -1.789876161432E-01
H63 -3.067942183627E-01  3.622152110290E-01  2.266563027794E-01
H64  3.067942183627E-01 -3.622152110290E-01 -2.266563027794E-01
H65  1.126455077016E-01 -9.840466393175E-02  4.355400516663E-02
H66 -1.126455077016E-01  9.840466393175E-02 -4.355400516663E-02
H67 -2.093762050829E-01  2.298628346631E-01  9.161800184758E-02
H68  2.093762050829E-01 -2.298628346631E-01 -9.161800184758E-02
H69  4.449423282430E-01 -8.795349000458E-02  2.767198035588E-01
H70 -4.449423282430E-01  8.795349000458E-02 -2.767198035588E-01
H71 -4.807994458832E-01 -1.399493625924E-02  4.234329594011E-01
H72  4.807994458832E-01  1.399493625924E-02 -4.234329594011E-01
H73 -1.693750795472E-01 -9.860997086404E-02  4.852517531356E-01
H74  1.693750795472E-01  9.860997086404E-02 -4.852517531356E-01
H75  7.151973088140E-02 -2.507001649182E-01  3.989942599248E-01
H76 -7.151973088140E-02  2.507001649182E-01 -3.989942599248E-01
H77 -4.591059687376E-01 -2.221824067956E-01  1.411403377005E-01
H78  4.591059687376E-01  2.221824067956E-01 -1.411403377005E-01
H79  1.679693805878E-01 -3.825016400560E-01  2.640828337694E-01
H80 -1.679693805878E-01  3.825016400560E-01 -2.640828337694E-01
H81 -3.622325294515E-01 -3.541831726558E-01  5.971636623838E-03
H82  3.622325294515E-01  3.541831726558E-01 -5.971636623838E-03
H83  2.651031715696E-01  4.858098765472E-01  1.290394924615E-01
H84 -2.651031715696E-01 -4.858098765472E-01 -1.290394924615E-01


#===END

data_OPT_STEP_68

_symmetry_space_group_name_H-M 'P 1'
_cell_length_a      6.63931806
_cell_length_b      8.16604606
_cell_length_c     16.77819572
_cell_angle_alpha  100.441582
_cell_angle_beta   91.569403
_cell_angle_gamma   95.394107

loop_
_atom_site_label
_atom_site_fract_x
_atom_site_fract_y
_atom_site_fract_z
C1  6.653364099666E-02  2.353970043548E-01  3.249655348267E-01
C2 -6.653364099666E-02 -2.353970043548E-01 -3.249655348267E-01
C3  1.140215653842E-01  3.447942884372E-01  3.956318855880E-01
C4 -1.140215653842E-01 -3.447942884372E-01 -3.956318855880E-01
C5  3.074655921107E-01  4.408338809079E-01  4.090099461636E-01
C6 -3.074655921107E-01 -4.408338809079E-01 -4.090099461636E-01
C7  4.480450009712E-01  4.238969433725E-01  3.514287005687E-01
C8 -4.480450009712E-01 -4.238969433725E-01 -3.514287005687E-01
C9  4.059169294880E-01  3.098556272856E-01  2.758347287727E-01
C10 -4.059169294880E-01 -3.098556272856E-01 -2.758347287727E-01
C11  2.088412071605E-01  2.134385510457E-01  2.620369777063E-01
C12 -2.088412071605E-01 -2.134385510457E-01 -2.620369777063E-01
C13  1.638036036343E-01  1.040271994452E-01  1.893081476586E-01
C14 -1.638036036343E-01 -1.040271994452E-01 -1.893081476586E-01
C15  3.048680171046E-01  8.285658545606E-02  1.275302011399E-01
C16 -3.048680171046E-01 -8.285658545606E-02 -1.275302011399E-01
C17 -4.973706187929E-01  1.787380768199E-01  1.415451742539E-01
C18  4.973706187929E-01 -1.787380768199E-01 -1.415451742539E-01
C19 -4.540651971847E-01  2.903389169089E-01  2.162125521007E-01
C20  4.540651971847E-01 -2.903389169089E-01 -2.162125521007E-01
C21  2.602298567684E-01 -2.705071632372E-02  5.399108320087E-02
C22 -2.602298567684E-01  2.705071632372E-02 -5.399108320087E-02
C23  4.009821215925E-01 -4.787858484140E-02 -7.039950913638E-03
C24 -4.009821215925E-01  4.787858484140E-02  7.039950913638E-03
C25 -3.569152329446E-01  1.584477576045E-01  8.113315895706E-02
C26  3.569152329446E-01 -1.584477576045E-01 -8.113315895706E-02
C27 -4.192690221347E-01 -1.240385604300E-01  3.033635112273E-01
C28  4.192690221347E-01  1.240385604300E-01 -3.033635112273E-01
C29 -3.781396180676E-01 -8.396600208497E-02  3.847536674617E-01
C30  3.781396180676E-01  8.396600208497E-02 -3.847536674617E-01
C31 -1.990010121979E-01 -1.311969743590E-01  4.201651757904E-01
C32  1.990010121979E-01  1.311969743590E-01 -4.201651757904E-01
C33 -6.561203300706E-02 -2.157620600958E-01  3.727468248787E-01
C34  6.561203300706E-02  2.157620600958E-01 -3.727468248787E-01
C35 -1.014967908104E-01 -2.610831321733E-01  2.865396684326E-01
C36  1.014967908104E-01  2.610831321733E-01 -2.865396684326E-01
C37 -2.842830100440E-01 -2.144173661108E-01  2.507952466172E-01
C38  2.842830100440E-01  2.144173661108E-01 -2.507952466172E-01
C39 -3.225320966071E-01 -2.570442741296E-01  1.678408680114E-01
C40  3.225320966071E-01  2.570442741296E-01 -1.678408680114E-01
C41 -1.881231148105E-01 -3.455209560861E-01  1.164417701065E-01
C42  1.881231148105E-01  3.455209560861E-01 -1.164417701065E-01
C43 -5.011629831464E-03 -3.921819253364E-01  1.523000219079E-01
C44  5.011629831464E-03  3.921819253364E-01 -1.523000219079E-01
C45  3.162235367229E-02 -3.475874426645E-01  2.372263268690E-01
C46 -3.162235367229E-02  3.475874426645E-01 -2.372263268690E-01
C47 -2.256617336593E-01 -3.889004626297E-01  3.273943636032E-02
C48  2.256617336593E-01  3.889004626297E-01 -3.273943636032E-02
C49 -9.161699952469E-02 -4.766499688762E-01 -1.795215297381E-02
C50  9.161699952469E-02  4.766499688762E-01  1.795215297381E-02
C51  1.286356453909E-01 -4.794173449305E-01  1.022194741044E-01
C52 -1.286356453909E-01  4.794173449305E-01 -1.022194741044E-01
H53 -8.017291991978E-02  1.627969470527E-01  3.149374200044E-01
H54  8.017291991978E-02 -1.627969470527E-01 -3.149374200044E-01
H55  5.341994470305E-03  3.597610935791E-01  4.427959829807E-01
H56 -5.341994470305E-03 -3.597610935791E-01 -4.427959829807E-01
H57  3.419911875211E-01 -4.722381312744E-01  4.657498244831E-01
H58 -3.419911875211E-01  4.722381312744E-01 -4.657498244831E-01
H59 -4.055476849011E-01  4.970871726237E-01  3.615312461387E-01
H60  4.055476849011E-01 -4.970871726237E-01 -3.615312461387E-01
H61  1.639513050244E-02  3.239809007781E-02  1.789662233563E-01
H62 -1.639513050244E-02 -3.239809007781E-02 -1.789662233563E-01
H63 -3.068186252437E-01  3.622065007004E-01  2.266738416112E-01
H64  3.068186252437E-01 -3.622065007004E-01 -2.266738416112E-01
H65  1.126680764387E-01 -9.838866814458E-02  4.353097758250E-02
H66 -1.126680764387E-01  9.838866814458E-02 -4.353097758250E-02
H67 -2.094020521070E-01  2.298540843370E-01  9.163737912109E-02
H68  2.094020521070E-01 -2.298540843370E-01 -9.163737912109E-02
H69  4.449793809928E-01 -8.795732963203E-02  2.766989342342E-01
H70 -4.449793809928E-01  8.795732963203E-02 -2.766989342342E-01
H71 -4.807749429774E-01 -1.397289800201E-02  4.234157051030E-01
H72  4.807749429774E-01  1.397289800201E-02 -4.234157051030E-01
H73 -1.693875732425E-01 -9.857737628979E-02  4.852487410962E-01
H74  1.693875732425E-01  9.857737628979E-02 -4.852487410962E-01
H75  7.148020732261E-02 -2.506733781346E-01  3.990007809918E-01
H76 -7.148020732261E-02  2.506733781346E-01 -3.990007809918E-01
H77 -4.590781853615E-01 -2.222058735811E-01  1.411237631239E-01
H78  4.590781853615E-01  2.222058735811E-01 -1.411237631239E-01
H79  1.679357818496E-01 -3.824738799582E-01  2.640911370329E-01
H80 -1.679357818496E-01  3.824738799582E-01 -2.640911370329E-01
H81 -3.622002627020E-01 -3.542047757702E-01  5.957620364868E-03
H82  3.622002627020E-01  3.542047757702E-01 -5.957620364868E-03
H83  2.650650482739E-01  4.858256472369E-01  1.290511150355E-01
H84 -2.650650482739E-01 -4.858256472369E-01 -1.290511150355E-01


#===END

data_OPT_STEP_69

_symmetry_space_group_name_H-M 'P 1'
_cell_length_a      6.63962413
_cell_length_b      8.16559534
_cell_length_c     16.77802278
_cell_angle_alpha  100.439680
_cell_angle_beta   91.569764
_cell_angle_gamma   95.394586

loop_
_atom_site_label
_atom_site_fract_x
_atom_site_fract_y
_atom_site_fract_z
C1  6.653894622465E-02  2.354021599520E-01  3.249623899348E-01
C2 -6.653894622465E-02 -2.354021599520E-01 -3.249623899348E-01
C3  1.140285605242E-01  3.447954731154E-01  3.956310282491E-01
C4 -1.140285605242E-01 -3.447954731154E-01 -3.956310282491E-01
C5  3.074724090572E-01  4.408310336295E-01  4.090124122519E-01
C6 -3.074724090572E-01 -4.408310336295E-01 -4.090124122519E-01
C7  4.480456205098E-01  4.238982586727E-01  3.514306705445E-01
C8 -4.480456205098E-01 -4.238982586727E-01 -3.514306705445E-01
C9  4.059184585334E-01  3.098562997491E-01  2.758355728206E-01
C10 -4.059184585334E-01 -3.098562997491E-01 -2.758355728206E-01
C11  2.088438196246E-01  2.134418226931E-01  2.620350936312E-01
C12 -2.088438196246E-01 -2.134418226931E-01 -2.620350936312E-01
C13  1.638043085683E-01  1.040333103859E-01  1.893044865386E-01
C14 -1.638043085683E-01 -1.040333103859E-01 -1.893044865386E-01
C15  3.048679612966E-01  8.285980728294E-02  1.275281804327E-01
C16 -3.048679612966E-01 -8.285980728294E-02 -1.275281804327E-01
C17 -4.973708186725E-01  1.787378823526E-01  1.415458720977E-01
C18  4.973708186725E-01 -1.787378823526E-01 -1.415458720977E-01
C19 -4.540646538371E-01  2.903369735883E-01  2.162148315497E-01
C20  4.540646538371E-01 -2.903369735883E-01 -2.162148315497E-01
C21  2.602288791081E-01 -2.704490163426E-02  5.398770203773E-02
C22 -2.602288791081E-01  2.704490163426E-02 -5.398770203773E-02
C23  4.009812614742E-01 -4.787511738271E-02 -7.041760953981E-03
C24 -4.009812614742E-01  4.787511738271E-02  7.041760953981E-03
C25 -3.569139356516E-01  1.584415271469E-01  8.113630507332E-02
C26  3.569139356516E-01 -1.584415271469E-01 -8.113630507332E-02
C27 -4.192653583362E-01 -1.240395298988E-01  3.033592413801E-01
C28  4.192653583362E-01  1.240395298988E-01 -3.033592413801E-01
C29 -3.781384027101E-01 -8.396390917461E-02  3.847499730613E-01
C30  3.781384027101E-01  8.396390917461E-02 -3.847499730613E-01
C31 -1.990040044423E-01 -1.311900644767E-01  4.201629048678E-01
C32  1.990040044423E-01  1.311900644767E-01 -4.201629048678E-01
C33 -6.561835037390E-02 -2.157568046333E-01  3.727459739826E-01
C34  6.561835037390E-02  2.157568046333E-01 -3.727459739826E-01
C35 -1.015002456991E-01 -2.610811970146E-01  2.865385883792E-01
C36  1.015002456991E-01  2.610811970146E-01 -2.865385883792E-01
C37 -2.842808302297E-01 -2.144175870125E-01  2.507925219654E-01
C38  2.842808302297E-01  2.144175870125E-01 -2.507925219654E-01
C39 -3.225277796775E-01 -2.570470312735E-01  1.678379538237E-01
C40  3.225277796775E-01  2.570470312735E-01 -1.678379538237E-01
C41 -1.881220078157E-01 -3.455244251636E-01  1.164402625227E-01
C42  1.881220078157E-01  3.455244251636E-01 -1.164402625227E-01
C43 -5.014971454172E-03 -3.921810248355E-01  1.522998397509E-01
C44  5.014971454172E-03  3.921810248355E-01 -1.522998397509E-01
C45  3.161734692364E-02 -3.475837592536E-01  2.372261995216E-01
C46 -3.161734692364E-02  3.475837592536E-01 -2.372261995216E-01
C47 -2.256578058517E-01 -3.889050360654E-01  3.273775834502E-02
C48  2.256578058517E-01  3.889050360654E-01 -3.273775834502E-02
C49 -9.161502482763E-02 -4.766525567004E-01 -1.795276700847E-02
C50  9.161502482763E-02  4.766525567004E-01  1.795276700847E-02
C51  1.286282986623E-01 -4.794175727225E-01  1.022204091956E-01
C52 -1.286282986623E-01  4.794175727225E-01 -1.022204091956E-01
H53 -8.016481116258E-02  1.627992844615E-01  3.149316424504E-01
H54  8.016481116258E-02 -1.627992844615E-01 -3.149316424504E-01
H55  5.349193537267E-03  3.597632997959E-01  4.427918109147E-01
H56 -5.349193537267E-03 -3.597632997959E-01 -4.427918109147E-01
H57  3.419921483052E-01 -4.722293115246E-01  4.657517698435E-01
H58 -3.419921483052E-01  4.722293115246E-01 -4.657517698435E-01
H59 -4.055503130613E-01  4.970901598492E-01  3.615364901574E-01
H60  4.055503130613E-01 -4.970901598492E-01 -3.615364901574E-01
H61  1.639929413239E-02  3.240174277640E-02  1.789601513272E-01
H62 -1.639929413239E-02 -3.240174277640E-02 -1.789601513272E-01
H63 -3.068193795951E-01  3.622047511134E-01  2.266790250704E-01
H64  3.068193795951E-01 -3.622047511134E-01 -2.266790250704E-01
H65  1.126711211885E-01 -9.838677425828E-02  4.352560629001E-02
H66 -1.126711211885E-01  9.838677425828E-02 -4.352560629001E-02
H67 -2.094000109180E-01  2.298436078628E-01  9.164433432469E-02
H68  2.094000109180E-01 -2.298436078628E-01 -9.164433432469E-02
H69  4.449880558500E-01 -8.796174818163E-02  2.766924589268E-01
H70 -4.449880558500E-01  8.796174818163E-02 -2.766924589268E-01
H71 -4.807666978015E-01 -1.396708364185E-02  4.234113531911E-01
H72  4.807666978015E-01  1.396708364185E-02 -4.234113531911E-01
H73 -1.693947250504E-01 -9.856998319070E-02  4.852476504687E-01
H74  1.693947250504E-01  9.856998319070E-02 -4.852476504687E-01
H75  7.146418949163E-02 -2.506648283164E-01  3.990045196941E-01
H76 -7.146418949163E-02  2.506648283164E-01 -3.990045196941E-01
H77 -4.590690694221E-01 -2.222113419699E-01  1.411193082862E-01
H78  4.590690694221E-01  2.222113419699E-01 -1.411193082862E-01
H79  1.679251155022E-01 -3.824684102583E-01  2.640928725407E-01
H80 -1.679251155022E-01  3.824684102583E-01 -2.640928725407E-01
H81 -3.621894205503E-01 -3.542082896635E-01  5.954230223007E-03
H82  3.621894205503E-01  3.542082896635E-01 -5.954230223007E-03
H83  2.650592869307E-01  4.858364383957E-01  1.290530721367E-01
H84 -2.650592869307E-01 -4.858364383957E-01 -1.290530721367E-01


#===END

data_OPT_STEP_70

_symmetry_space_group_name_H-M 'P 1'
_cell_length_a      6.63970034
_cell_length_b      8.16549229
_cell_length_c     16.77798761
_cell_angle_alpha  100.439244
_cell_angle_beta   91.569853
_cell_angle_gamma   95.394697

loop_
_atom_site_label
_atom_site_fract_x
_atom_site_fract_y
_atom_site_fract_z
C1  6.654077263846E-02  2.354035244929E-01  3.249619925409E-01
C2 -6.654077263846E-02 -2.354035244929E-01 -3.249619925409E-01
C3  1.140304371143E-01  3.447959625459E-01  3.956311935016E-01
C4 -1.140304371143E-01 -3.447959625459E-01 -3.956311935016E-01
C5  3.074741448223E-01  4.408307403267E-01  4.090131491320E-01
C6 -3.074741448223E-01 -4.408307403267E-01 -4.090131491320E-01
C7  4.480459316032E-01  4.238976091013E-01  3.514311994894E-01
C8 -4.480459316032E-01 -4.238976091013E-01 -3.514311994894E-01
C9  4.059195701294E-01  3.098550721916E-01  2.758360150990E-01
C10 -4.059195701294E-01 -3.098550721916E-01 -2.758360150990E-01
C11  2.088438897130E-01  2.134432294573E-01  2.620346406984E-01
C12 -2.088438897130E-01 -2.134432294573E-01 -2.620346406984E-01
C13  1.638034263461E-01  1.040360807788E-01  1.893035769907E-01
C14 -1.638034263461E-01 -1.040360807788E-01 -1.893035769907E-01
C15  3.048670474658E-01  8.286123839325E-02  1.275276367351E-01
C16 -3.048670474658E-01 -8.286123839325E-02 -1.275276367351E-01
C17 -4.973708538800E-01  1.787376590589E-01  1.415459058099E-01
C18  4.973708538800E-01 -1.787376590589E-01 -1.415459058099E-01
C19 -4.540640978534E-01  2.903360057619E-01  2.162152761831E-01
C20  4.540640978534E-01 -2.903360057619E-01 -2.162152761831E-01
C21  2.602296121550E-01 -2.704625202845E-02  5.398783924970E-02
C22 -2.602296121550E-01  2.704625202845E-02 -5.398783924970E-02
C23  4.009805702912E-01 -4.787380858516E-02 -7.042190515472E-03
C24 -4.009805702912E-01  4.787380858516E-02  7.042190515472E-03
C25 -3.569132763259E-01  1.584391683813E-01  8.113701281611E-02
C26  3.569132763259E-01 -1.584391683813E-01 -8.113701281611E-02
C27 -4.192644410929E-01 -1.240394170242E-01  3.033579628940E-01
C28  4.192644410929E-01  1.240394170242E-01 -3.033579628940E-01
C29 -3.781364958575E-01 -8.396142039226E-02  3.847485731743E-01
C30  3.781364958575E-01  8.396142039226E-02 -3.847485731743E-01
C31 -1.990046445753E-01 -1.311884043679E-01  4.201617992291E-01
C32  1.990046445753E-01  1.311884043679E-01 -4.201617992291E-01
C33 -6.561984808893E-02 -2.157559809794E-01  3.727451159736E-01
C34  6.561984808893E-02  2.157559809794E-01 -3.727451159736E-01
C35 -1.015007925087E-01 -2.610807298797E-01  2.865380572869E-01
C36  1.015007925087E-01  2.610807298797E-01 -2.865380572869E-01
C37 -2.842799978092E-01 -2.144174025000E-01  2.507917899631E-01
C38  2.842799978092E-01  2.144174025000E-01 -2.507917899631E-01
C39 -3.225263551159E-01 -2.570475756440E-01  1.678372548006E-01
C40  3.225263551159E-01  2.570475756440E-01 -1.678372548006E-01
C41 -1.881217782186E-01 -3.455259547375E-01  1.164399869115E-01
C42  1.881217782186E-01  3.455259547375E-01 -1.164399869115E-01
C43 -5.016054354324E-03 -3.921812031527E-01  1.522997222017E-01
C44  5.016054354324E-03  3.921812031527E-01 -1.522997222017E-01
C45  3.161522146840E-02 -3.475844646777E-01  2.372260306576E-01
C46 -3.161522146840E-02  3.475844646777E-01 -2.372260306576E-01
C47 -2.256557125977E-01 -3.889051997094E-01  3.273736851900E-02
C48  2.256557125977E-01  3.889051997094E-01 -3.273736851900E-02
C49 -9.161443577413E-02 -4.766534266501E-01 -1.795283677905E-02
C50  9.161443577413E-02  4.766534266501E-01  1.795283677905E-02
C51  1.286277377447E-01 -4.794155137262E-01  1.022203306038E-01
C52 -1.286277377447E-01  4.794155137262E-01 -1.022203306038E-01
H53 -8.016366936228E-02  1.627993815399E-01  3.149298010524E-01
H54  8.016366936228E-02 -1.627993815399E-01 -3.149298010524E-01
H55  5.348468457933E-03  3.597644351031E-01  4.427890009145E-01
H56 -5.348468457933E-03 -3.597644351031E-01 -4.427890009145E-01
H57  3.419914133341E-01 -4.722256848958E-01  4.657530376451E-01
H58 -3.419914133341E-01  4.722256848958E-01 -4.657530376451E-01
H59 -4.055509691570E-01  4.970925259527E-01  3.615383670438E-01
H60  4.055509691570E-01 -4.970925259527E-01 -3.615383670438E-01
H61  1.639898189168E-02  3.240227809381E-02  1.789582054910E-01
H62 -1.639898189168E-02 -3.240227809381E-02 -1.789582054910E-01
H63 -3.068172484512E-01  3.622050867095E-01  2.266806720012E-01
H64  3.068172484512E-01 -3.622050867095E-01 -2.266806720012E-01
H65  1.126688559118E-01 -9.838374717739E-02  4.352310479839E-02
H66 -1.126688559118E-01  9.838374717739E-02 -4.352310479839E-02
H67 -2.093983315619E-01  2.298419871406E-01  9.164622305703E-02
H68  2.093983315619E-01 -2.298419871406E-01 -9.164622305703E-02
H69  4.449900303507E-01 -8.796392713701E-02  2.766905153430E-01
H70 -4.449900303507E-01  8.796392713701E-02 -2.766905153430E-01
H71 -4.807623367988E-01 -1.396810818483E-02  4.234110638222E-01
H72  4.807623367988E-01  1.396810818483E-02 -4.234110638222E-01
H73 -1.693962948532E-01 -9.856724633342E-02  4.852470952933E-01
H74  1.693962948532E-01  9.856724633343E-02 -4.852470952933E-01
H75  7.145711699035E-02 -2.506621643087E-01  3.990067713069E-01
H76 -7.145711699035E-02  2.506621643087E-01 -3.990067713069E-01
H77 -4.590661599634E-01 -2.222125201428E-01  1.411182140503E-01
H78  4.590661599634E-01  2.222125201428E-01 -1.411182140503E-01
H79  1.679228013248E-01 -3.824654953906E-01  2.640931662351E-01
H80 -1.679228013248E-01  3.824654953906E-01 -2.640931662351E-01
H81 -3.621871396603E-01 -3.542109470992E-01  5.953635343309E-03
H82  3.621871396603E-01  3.542109470992E-01 -5.953635343309E-03
H83  2.650555763715E-01  4.858368528131E-01  1.290535651881E-01
H84 -2.650555763715E-01 -4.858368528131E-01 -1.290535651881E-01


#===END

data_OPT_STEP_71

_symmetry_space_group_name_H-M 'P 1'
_cell_length_a      6.63970034
_cell_length_b      8.16549229
_cell_length_c     16.77798761
_cell_angle_alpha  100.439244
_cell_angle_beta   91.569853
_cell_angle_gamma   95.394697

loop_
_atom_site_label
_atom_site_fract_x
_atom_site_fract_y
_atom_site_fract_z
C1  6.654077263846E-02  2.354035244929E-01  3.249619925409E-01
C2 -6.654077263846E-02 -2.354035244929E-01 -3.249619925409E-01
C3  1.140304371143E-01  3.447959625459E-01  3.956311935016E-01
C4 -1.140304371143E-01 -3.447959625459E-01 -3.956311935016E-01
C5  3.074741448223E-01  4.408307403267E-01  4.090131491320E-01
C6 -3.074741448223E-01 -4.408307403267E-01 -4.090131491320E-01
C7  4.480459316032E-01  4.238976091013E-01  3.514311994894E-01
C8 -4.480459316032E-01 -4.238976091013E-01 -3.514311994894E-01
C9  4.059195701294E-01  3.098550721916E-01  2.758360150990E-01
C10 -4.059195701294E-01 -3.098550721916E-01 -2.758360150990E-01
C11  2.088438897130E-01  2.134432294573E-01  2.620346406984E-01
C12 -2.088438897130E-01 -2.134432294573E-01 -2.620346406984E-01
C13  1.638034263461E-01  1.040360807788E-01  1.893035769907E-01
C14 -1.638034263461E-01 -1.040360807788E-01 -1.893035769907E-01
C15  3.048670474658E-01  8.286123839325E-02  1.275276367351E-01
C16 -3.048670474658E-01 -8.286123839325E-02 -1.275276367351E-01
C17 -4.973708538800E-01  1.787376590589E-01  1.415459058099E-01
C18  4.973708538800E-01 -1.787376590589E-01 -1.415459058099E-01
C19 -4.540640978534E-01  2.903360057619E-01  2.162152761831E-01
C20  4.540640978534E-01 -2.903360057619E-01 -2.162152761831E-01
C21  2.602296121550E-01 -2.704625202845E-02  5.398783924970E-02
C22 -2.602296121550E-01  2.704625202845E-02 -5.398783924970E-02
C23  4.009805702912E-01 -4.787380858516E-02 -7.042190515472E-03
C24 -4.009805702912E-01  4.787380858516E-02  7.042190515472E-03
C25 -3.569132763259E-01  1.584391683813E-01  8.113701281611E-02
C26  3.569132763259E-01 -1.584391683813E-01 -8.113701281611E-02
C27 -4.192644410929E-01 -1.240394170242E-01  3.033579628940E-01
C28  4.192644410929E-01  1.240394170242E-01 -3.033579628940E-01
C29 -3.781364958575E-01 -8.396142039226E-02  3.847485731743E-01
C30  3.781364958575E-01  8.396142039226E-02 -3.847485731743E-01
C31 -1.990046445753E-01 -1.311884043679E-01  4.201617992291E-01
C32  1.990046445753E-01  1.311884043679E-01 -4.201617992291E-01
C33 -6.561984808893E-02 -2.157559809794E-01  3.727451159736E-01
C34  6.561984808893E-02  2.157559809794E-01 -3.727451159736E-01
C35 -1.015007925087E-01 -2.610807298797E-01  2.865380572869E-01
C36  1.015007925087E-01  2.610807298797E-01 -2.865380572869E-01
C37 -2.842799978092E-01 -2.144174025000E-01  2.507917899631E-01
C38  2.842799978092E-01  2.144174025000E-01 -2.507917899631E-01
C39 -3.225263551159E-01 -2.570475756440E-01  1.678372548006E-01
C40  3.225263551159E-01  2.570475756440E-01 -1.678372548006E-01
C41 -1.881217782186E-01 -3.455259547375E-01  1.164399869115E-01
C42  1.881217782186E-01  3.455259547375E-01 -1.164399869115E-01
C43 -5.016054354324E-03 -3.921812031527E-01  1.522997222017E-01
C44  5.016054354324E-03  3.921812031527E-01 -1.522997222017E-01
C45  3.161522146840E-02 -3.475844646777E-01  2.372260306576E-01
C46 -3.161522146840E-02  3.475844646777E-01 -2.372260306576E-01
C47 -2.256557125977E-01 -3.889051997094E-01  3.273736851900E-02
C48  2.256557125977E-01  3.889051997094E-01 -3.273736851900E-02
C49 -9.161443577413E-02 -4.766534266501E-01 -1.795283677905E-02
C50  9.161443577413E-02  4.766534266501E-01  1.795283677905E-02
C51  1.286277377447E-01 -4.794155137262E-01  1.022203306038E-01
C52 -1.286277377447E-01  4.794155137262E-01 -1.022203306038E-01
H53 -8.016366936228E-02  1.627993815399E-01  3.149298010524E-01
H54  8.016366936228E-02 -1.627993815399E-01 -3.149298010524E-01
H55  5.348468457933E-03  3.597644351031E-01  4.427890009145E-01
H56 -5.348468457933E-03 -3.597644351031E-01 -4.427890009145E-01
H57  3.419914133341E-01 -4.722256848958E-01  4.657530376451E-01
H58 -3.419914133341E-01  4.722256848958E-01 -4.657530376451E-01
H59 -4.055509691570E-01  4.970925259527E-01  3.615383670438E-01
H60  4.055509691570E-01 -4.970925259527E-01 -3.615383670438E-01
H61  1.639898189168E-02  3.240227809381E-02  1.789582054910E-01
H62 -1.639898189168E-02 -3.240227809381E-02 -1.789582054910E-01
H63 -3.068172484512E-01  3.622050867095E-01  2.266806720012E-01
H64  3.068172484512E-01 -3.622050867095E-01 -2.266806720012E-01
H65  1.126688559118E-01 -9.838374717739E-02  4.352310479839E-02
H66 -1.126688559118E-01  9.838374717739E-02 -4.352310479839E-02
H67 -2.093983315619E-01  2.298419871406E-01  9.164622305703E-02
H68  2.093983315619E-01 -2.298419871406E-01 -9.164622305703E-02
H69  4.449900303507E-01 -8.796392713701E-02  2.766905153430E-01
H70 -4.449900303507E-01  8.796392713701E-02 -2.766905153430E-01
H71 -4.807623367988E-01 -1.396810818483E-02  4.234110638222E-01
H72  4.807623367988E-01  1.396810818483E-02 -4.234110638222E-01
H73 -1.693962948532E-01 -9.856724633342E-02  4.852470952933E-01
H74  1.693962948532E-01  9.856724633343E-02 -4.852470952933E-01
H75  7.145711699035E-02 -2.506621643087E-01  3.990067713069E-01
H76 -7.145711699035E-02  2.506621643087E-01 -3.990067713069E-01
H77 -4.590661599634E-01 -2.222125201428E-01  1.411182140503E-01
H78  4.590661599634E-01  2.222125201428E-01 -1.411182140503E-01
H79  1.679228013248E-01 -3.824654953906E-01  2.640931662351E-01
H80 -1.679228013248E-01  3.824654953906E-01 -2.640931662351E-01
H81 -3.621871396603E-01 -3.542109470992E-01  5.953635343309E-03
H82  3.621871396603E-01  3.542109470992E-01 -5.953635343309E-03
H83  2.650555763715E-01  4.858368528131E-01  1.290535651881E-01
H84 -2.650555763715E-01 -4.858368528131E-01 -1.290535651881E-01


#===END
