###############################################################################
#
#                    CRYSTAL17 CIF FILE
#
###############################################################################

data_OPT_STEP_1

_symmetry_space_group_name_H-M 'P 1'
_cell_length_a      7.90000000
_cell_length_b      6.06000000
_cell_length_c     16.01000000
_cell_angle_alpha  101.900002
_cell_angle_beta  112.599998
_cell_angle_gamma   85.800003

loop_
_atom_site_label
_atom_site_fract_x
_atom_site_fract_y
_atom_site_fract_z
C1  1.484000000000E-01  1.830000000000E-02  4.071000000000E-01
C2 -1.484000000000E-01 -1.830000000000E-02 -4.071000000000E-01
C3 -1.520000000000E-02 -2.634000000000E-01  2.786000000000E-01
C4  1.520000000000E-02  2.634000000000E-01 -2.786000000000E-01
C5  5.190000000000E-02 -1.800000000000E-01  3.706000000000E-01
C6 -5.190000000000E-02  1.800000000000E-01 -3.706000000000E-01
C7  1.707000000000E-01  1.361000000000E-01  3.491000000000E-01
C8 -1.707000000000E-01 -1.361000000000E-01 -3.491000000000E-01
C9  1.030000000000E-01  6.040000000000E-02  2.508000000000E-01
C10 -1.030000000000E-01 -6.040000000000E-02 -2.508000000000E-01
C11  1.274000000000E-01  1.650000000000E-01  1.894000000000E-01
C12 -1.274000000000E-01 -1.650000000000E-01 -1.894000000000E-01
C13  5.720000000000E-02  9.510000000000E-02  9.500000000000E-02
C14 -5.720000000000E-02 -9.510000000000E-02 -9.500000000000E-02
C15  9.250000000000E-02  2.095000000000E-01  3.350000000000E-02
C16 -9.250000000000E-02 -2.095000000000E-01 -3.350000000000E-02
C17 -2.270000000000E-02 -1.227000000000E-01  5.670000000000E-02
C18  2.270000000000E-02  1.227000000000E-01 -5.670000000000E-02
C19 -5.400000000000E-02 -2.325000000000E-01  1.225000000000E-01
C20  5.400000000000E-02  2.325000000000E-01 -1.225000000000E-01
C21  1.500000000000E-02 -1.516000000000E-01  2.149000000000E-01
C22 -1.500000000000E-02  1.516000000000E-01 -2.149000000000E-01
H23  2.020000000000E-01  8.700000000000E-02  4.820000000000E-01
H24 -2.020000000000E-01 -8.700000000000E-02 -4.820000000000E-01
H25 -8.500000000000E-02 -4.270000000000E-01  2.510000000000E-01
H26  8.500000000000E-02  4.270000000000E-01 -2.510000000000E-01
H27  3.300000000000E-02 -2.720000000000E-01  4.200000000000E-01
H28 -3.300000000000E-02  2.720000000000E-01 -4.200000000000E-01
H29  2.460000000000E-01  2.940000000000E-01  3.700000000000E-01
H30 -2.460000000000E-01 -2.940000000000E-01 -3.700000000000E-01
H31  2.020000000000E-01  3.210000000000E-01  2.180000000000E-01
H32 -2.020000000000E-01 -3.210000000000E-01 -2.180000000000E-01
H33  1.620000000000E-01  3.620000000000E-01  6.100000000000E-02
H34 -1.620000000000E-01 -3.620000000000E-01 -6.100000000000E-02
H35 -1.220000000000E-01 -3.950000000000E-01  9.800000000000E-02
H36  1.220000000000E-01  3.950000000000E-01 -9.800000000000E-02
C37 -4.373000000000E-01 -4.267000000000E-01  4.014000000000E-01
C38  4.373000000000E-01  4.267000000000E-01 -4.014000000000E-01
C39 -4.965000000000E-01 -3.195000000000E-01  3.286000000000E-01
C40  4.965000000000E-01  3.195000000000E-01 -3.286000000000E-01
C41 -4.790000000000E-01 -4.124000000000E-01  2.434000000000E-01
C42  4.790000000000E-01  4.124000000000E-01 -2.434000000000E-01
C43  4.582000000000E-01 -2.990000000000E-01  1.686000000000E-01
C44 -4.582000000000E-01  2.990000000000E-01 -1.686000000000E-01
C45  4.810000000000E-01 -3.938000000000E-01  8.460000000000E-02
C46 -4.810000000000E-01  3.938000000000E-01 -8.460000000000E-02
C47  4.231000000000E-01 -2.862000000000E-01  1.000000000000E-02
C48 -4.231000000000E-01  2.862000000000E-01 -1.000000000000E-02
C49 -4.378000000000E-01  3.794000000000E-01  7.540000000000E-02
C50  4.378000000000E-01 -3.794000000000E-01 -7.540000000000E-02
C51 -3.897000000000E-01  2.743000000000E-01  1.483000000000E-01
C52  3.897000000000E-01 -2.743000000000E-01 -1.483000000000E-01
C53 -3.939000000000E-01  3.652000000000E-01  2.342000000000E-01
C54  3.939000000000E-01 -3.652000000000E-01 -2.342000000000E-01
C55 -3.451000000000E-01  2.570000000000E-01  3.094000000000E-01
C56  3.451000000000E-01 -2.570000000000E-01 -3.094000000000E-01
C57 -3.504000000000E-01  3.487000000000E-01  3.925000000000E-01
C58  3.504000000000E-01 -3.487000000000E-01 -3.925000000000E-01
H59 -4.470000000000E-01 -3.390000000000E-01  4.750000000000E-01
H60  4.470000000000E-01  3.390000000000E-01 -4.750000000000E-01
H61  4.470000000000E-01 -1.470000000000E-01  3.350000000000E-01
H62 -4.470000000000E-01  1.470000000000E-01 -3.350000000000E-01
H63  4.010000000000E-01 -1.270000000000E-01  1.780000000000E-01
H64 -4.010000000000E-01  1.270000000000E-01 -1.780000000000E-01
H65  3.620000000000E-01 -1.130000000000E-01  2.000000000000E-02
H66 -3.620000000000E-01  1.130000000000E-01 -2.000000000000E-02
H67 -3.270000000000E-01  1.040000000000E-01  1.420000000000E-01
H68  3.270000000000E-01 -1.040000000000E-01 -1.420000000000E-01
H69 -2.820000000000E-01  8.800000000000E-02  3.040000000000E-01
H70  2.820000000000E-01 -8.800000000000E-02 -3.040000000000E-01
H71 -3.000000000000E-01  2.650000000000E-01  4.530000000000E-01
H72  3.000000000000E-01 -2.650000000000E-01 -4.530000000000E-01


#===END

data_OPT_STEP_2

_symmetry_space_group_name_H-M 'P 1'
_cell_length_a      7.90000000
_cell_length_b      6.06000000
_cell_length_c     16.01000000
_cell_angle_alpha  101.900002
_cell_angle_beta  112.599998
_cell_angle_gamma   85.800003

loop_
_atom_site_label
_atom_site_fract_x
_atom_site_fract_y
_atom_site_fract_z
C1  1.484000000000E-01  1.830000000000E-02  4.071000000000E-01
C2 -1.484000000000E-01 -1.830000000000E-02 -4.071000000000E-01
C3 -1.520000000000E-02 -2.634000000000E-01  2.786000000000E-01
C4  1.520000000000E-02  2.634000000000E-01 -2.786000000000E-01
C5  5.190000000000E-02 -1.800000000000E-01  3.706000000000E-01
C6 -5.190000000000E-02  1.800000000000E-01 -3.706000000000E-01
C7  1.707000000000E-01  1.361000000000E-01  3.491000000000E-01
C8 -1.707000000000E-01 -1.361000000000E-01 -3.491000000000E-01
C9  1.030000000000E-01  6.040000000000E-02  2.508000000000E-01
C10 -1.030000000000E-01 -6.040000000000E-02 -2.508000000000E-01
C11  1.274000000000E-01  1.650000000000E-01  1.894000000000E-01
C12 -1.274000000000E-01 -1.650000000000E-01 -1.894000000000E-01
C13  5.720000000000E-02  9.510000000000E-02  9.500000000000E-02
C14 -5.720000000000E-02 -9.510000000000E-02 -9.500000000000E-02
C15  9.250000000000E-02  2.095000000000E-01  3.350000000000E-02
C16 -9.250000000000E-02 -2.095000000000E-01 -3.350000000000E-02
C17 -2.270000000000E-02 -1.227000000000E-01  5.670000000000E-02
C18  2.270000000000E-02  1.227000000000E-01 -5.670000000000E-02
C19 -5.400000000000E-02 -2.325000000000E-01  1.225000000000E-01
C20  5.400000000000E-02  2.325000000000E-01 -1.225000000000E-01
C21  1.500000000000E-02 -1.516000000000E-01  2.149000000000E-01
C22 -1.500000000000E-02  1.516000000000E-01 -2.149000000000E-01
H23  2.020000000000E-01  8.700000000000E-02  4.820000000000E-01
H24 -2.020000000000E-01 -8.700000000000E-02 -4.820000000000E-01
H25 -8.500000000000E-02 -4.270000000000E-01  2.510000000000E-01
H26  8.500000000000E-02  4.270000000000E-01 -2.510000000000E-01
H27  3.300000000000E-02 -2.720000000000E-01  4.200000000000E-01
H28 -3.300000000000E-02  2.720000000000E-01 -4.200000000000E-01
H29  2.460000000000E-01  2.940000000000E-01  3.700000000000E-01
H30 -2.460000000000E-01 -2.940000000000E-01 -3.700000000000E-01
H31  2.020000000000E-01  3.210000000000E-01  2.180000000000E-01
H32 -2.020000000000E-01 -3.210000000000E-01 -2.180000000000E-01
H33  1.620000000000E-01  3.620000000000E-01  6.100000000000E-02
H34 -1.620000000000E-01 -3.620000000000E-01 -6.100000000000E-02
H35 -1.220000000000E-01 -3.950000000000E-01  9.800000000000E-02
H36  1.220000000000E-01  3.950000000000E-01 -9.800000000000E-02
C37 -4.373000000000E-01 -4.267000000000E-01  4.014000000000E-01
C38  4.373000000000E-01  4.267000000000E-01 -4.014000000000E-01
C39 -4.965000000000E-01 -3.195000000000E-01  3.286000000000E-01
C40  4.965000000000E-01  3.195000000000E-01 -3.286000000000E-01
C41 -4.790000000000E-01 -4.124000000000E-01  2.434000000000E-01
C42  4.790000000000E-01  4.124000000000E-01 -2.434000000000E-01
C43  4.582000000000E-01 -2.990000000000E-01  1.686000000000E-01
C44 -4.582000000000E-01  2.990000000000E-01 -1.686000000000E-01
C45  4.810000000000E-01 -3.938000000000E-01  8.460000000000E-02
C46 -4.810000000000E-01  3.938000000000E-01 -8.460000000000E-02
C47  4.231000000000E-01 -2.862000000000E-01  1.000000000000E-02
C48 -4.231000000000E-01  2.862000000000E-01 -1.000000000000E-02
C49 -4.378000000000E-01  3.794000000000E-01  7.540000000000E-02
C50  4.378000000000E-01 -3.794000000000E-01 -7.540000000000E-02
C51 -3.897000000000E-01  2.743000000000E-01  1.483000000000E-01
C52  3.897000000000E-01 -2.743000000000E-01 -1.483000000000E-01
C53 -3.939000000000E-01  3.652000000000E-01  2.342000000000E-01
C54  3.939000000000E-01 -3.652000000000E-01 -2.342000000000E-01
C55 -3.451000000000E-01  2.570000000000E-01  3.094000000000E-01
C56  3.451000000000E-01 -2.570000000000E-01 -3.094000000000E-01
C57 -3.504000000000E-01  3.487000000000E-01  3.925000000000E-01
C58  3.504000000000E-01 -3.487000000000E-01 -3.925000000000E-01
H59 -4.470000000000E-01 -3.390000000000E-01  4.750000000000E-01
H60  4.470000000000E-01  3.390000000000E-01 -4.750000000000E-01
H61  4.470000000000E-01 -1.470000000000E-01  3.350000000000E-01
H62 -4.470000000000E-01  1.470000000000E-01 -3.350000000000E-01
H63  4.010000000000E-01 -1.270000000000E-01  1.780000000000E-01
H64 -4.010000000000E-01  1.270000000000E-01 -1.780000000000E-01
H65  3.620000000000E-01 -1.130000000000E-01  2.000000000000E-02
H66 -3.620000000000E-01  1.130000000000E-01 -2.000000000000E-02
H67 -3.270000000000E-01  1.040000000000E-01  1.420000000000E-01
H68  3.270000000000E-01 -1.040000000000E-01 -1.420000000000E-01
H69 -2.820000000000E-01  8.800000000000E-02  3.040000000000E-01
H70  2.820000000000E-01 -8.800000000000E-02 -3.040000000000E-01
H71 -3.000000000000E-01  2.650000000000E-01  4.530000000000E-01
H72  3.000000000000E-01 -2.650000000000E-01 -4.530000000000E-01


#===END

data_OPT_STEP_3

_symmetry_space_group_name_H-M 'P 1'
_cell_length_a      7.92137697
_cell_length_b      6.08066202
_cell_length_c     16.00185672
_cell_angle_alpha  101.862985
_cell_angle_beta  112.542280
_cell_angle_gamma   85.737375

loop_
_atom_site_label
_atom_site_fract_x
_atom_site_fract_y
_atom_site_fract_z
C1  1.462509942363E-01  2.061882993033E-02  4.074859706195E-01
C2 -1.462509942363E-01 -2.061882993033E-02 -4.074859706195E-01
C3 -1.366972801409E-02 -2.662049988332E-01  2.792947012276E-01
C4  1.366972801409E-02  2.662049988332E-01 -2.792947012276E-01
C5  5.248505110043E-02 -1.818761740426E-01  3.712236621289E-01
C6 -5.248505110043E-02  1.818761740426E-01 -3.712236621289E-01
C7  1.719093526922E-01  1.370231327469E-01  3.497684927104E-01
C8 -1.719093526922E-01 -1.370231327469E-01 -3.497684927104E-01
C9  1.061703802245E-01  5.913895459551E-02  2.517559078534E-01
C10 -1.061703802245E-01 -5.913895459551E-02 -2.517559078534E-01
C11  1.282238893020E-01  1.683498419689E-01  1.904334329801E-01
C12 -1.282238893020E-01 -1.683498419689E-01 -1.904334329801E-01
C13  6.592943542300E-02  9.089669460932E-02  9.595058303590E-02
C14 -6.592943542300E-02 -9.089669460932E-02 -9.595058303590E-02
C15  9.292658655501E-02  2.100238512194E-01  3.391700346614E-02
C16 -9.292658655501E-02 -2.100238512194E-01 -3.391700346614E-02
C17 -2.895519785938E-02 -1.197624065758E-01  5.704855206264E-02
C18  2.895519785938E-02  1.197624065758E-01 -5.704855206264E-02
C19 -5.345444791357E-02 -2.343614089315E-01  1.227383468780E-01
C20  5.345444791357E-02  2.343614089315E-01 -1.227383468780E-01
C21  1.019280044132E-02 -1.494689251477E-01  2.152307254327E-01
C22 -1.019280044132E-02  1.494689251477E-01 -2.152307254327E-01
H23  2.002286314563E-01  8.791771032675E-02  4.820750263807E-01
H24 -2.002286314563E-01 -8.791771032675E-02 -4.820750263807E-01
H25 -8.474559216652E-02 -4.276502063538E-01  2.517696394609E-01
H26  8.474559216652E-02  4.276502063538E-01 -2.517696394609E-01
H27  3.453573670001E-02 -2.741509283410E-01  4.202084567256E-01
H28 -3.453573670001E-02  2.741509283410E-01 -4.202084567256E-01
H29  2.441032851899E-01  2.965322984517E-01  3.714167932825E-01
H30 -2.441032851899E-01 -2.965322984517E-01 -3.714167932825E-01
H31  1.982452990956E-01  3.275023240375E-01  2.184431819792E-01
H32 -1.982452990956E-01 -3.275023240375E-01 -2.184431819792E-01
H33  1.590443259757E-01  3.661339990671E-01  6.117906601859E-02
H34 -1.590443259757E-01 -3.661339990671E-01 -6.117906601859E-02
H35 -1.206239829450E-01 -3.966819157279E-01  9.789102729672E-02
H36  1.206239829450E-01  3.966819157279E-01 -9.789102729672E-02
C37 -4.358028636284E-01 -4.266356898268E-01  4.017149605726E-01
C38  4.358028636284E-01  4.266356898268E-01 -4.017149605726E-01
C39 -4.942491964695E-01 -3.186818658027E-01  3.291767765527E-01
C40  4.942491964695E-01  3.186818658027E-01 -3.291767765527E-01
C41 -4.795314150952E-01 -4.135468554096E-01  2.431984166798E-01
C42  4.795314150952E-01  4.135468554096E-01 -2.431984166798E-01
C43  4.613461120197E-01 -2.994707643823E-01  1.691280892401E-01
C44 -4.613461120197E-01  2.994707643823E-01 -1.691280892401E-01
C45  4.793732495073E-01 -3.960260157850E-01  8.425442470774E-02
C46 -4.793732495073E-01  3.960260157850E-01 -8.425442470774E-02
C47  4.241512402706E-01 -2.860604718037E-01  1.021157635020E-02
C48 -4.241512402706E-01  2.860604718037E-01 -1.021157635020E-02
C49 -4.407911967526E-01  3.778994036827E-01  7.462761575505E-02
C50  4.407911967526E-01 -3.778994036827E-01 -7.462761575505E-02
C51 -3.873906784739E-01  2.731527330834E-01  1.486947598022E-01
C52  3.873906784739E-01 -2.731527330834E-01 -1.486947598022E-01
C53 -4.005050270748E-01  3.618314409848E-01  2.330269899917E-01
C54  4.005050270748E-01 -3.618314409848E-01 -2.330269899917E-01
C55 -3.415094874939E-01  2.578031048211E-01  3.103265258285E-01
C56  3.415094874939E-01 -2.578031048211E-01 -3.103265258285E-01
C57 -3.529209238594E-01  3.493325300501E-01  3.924386235117E-01
C58  3.529209238594E-01 -3.493325300501E-01 -3.924386235117E-01
H59 -4.447981131240E-01 -3.406453938592E-01  4.735531093671E-01
H60  4.447981131240E-01  3.406453938592E-01 -4.735531093671E-01
H61  4.456840805898E-01 -1.496038797972E-01  3.351374621132E-01
H62 -4.456840805898E-01  1.496038797972E-01 -3.351374621131E-01
H63  4.016379877791E-01 -1.304740041940E-01  1.777793602520E-01
H64 -4.016379877791E-01  1.304740041940E-01 -1.777793602520E-01
H65  3.633798265696E-01 -1.151298836878E-01  1.976107254040E-02
H66 -3.633798265696E-01  1.151298836878E-01 -1.976107254040E-02
H67 -3.257242025999E-01  1.040039424575E-01  1.422744098842E-01
H68  3.257242025999E-01 -1.040039424575E-01 -1.422744098842E-01
H69 -2.780782721028E-01  9.048605557418E-02  3.048956329492E-01
H70  2.780782721028E-01 -9.048605557418E-02 -3.048956329492E-01
H71 -3.025287782368E-01  2.666474881458E-01  4.526657910966E-01
H72  3.025287782368E-01 -2.666474881458E-01 -4.526657910966E-01


#===END

data_OPT_STEP_4

_symmetry_space_group_name_H-M 'P 1'
_cell_length_a      8.00417616
_cell_length_b      6.12893599
_cell_length_c     15.96535909
_cell_angle_alpha  101.569222
_cell_angle_beta  112.576462
_cell_angle_gamma   86.113221

loop_
_atom_site_label
_atom_site_fract_x
_atom_site_fract_y
_atom_site_fract_z
C1  1.413872937540E-01  2.497794599802E-02  4.077853488675E-01
C2 -1.413872937540E-01 -2.497794599802E-02 -4.077853488675E-01
C3 -1.169633529081E-02 -2.707523206955E-01  2.798861789057E-01
C4  1.169633529081E-02  2.707523206955E-01 -2.798861789057E-01
C5  5.235792919367E-02 -1.851540747763E-01  3.718888349988E-01
C6 -5.235792919367E-02  1.851540747763E-01 -3.718888349988E-01
C7  1.658279368848E-01  1.439491284647E-01  3.501123791186E-01
C8 -1.658279368848E-01 -1.439491284647E-01 -3.501123791186E-01
C9  1.000932987010E-01  6.351623722432E-02  2.522643444410E-01
C10 -1.000932987010E-01 -6.351623722432E-02 -2.522643444410E-01
C11  1.209164145683E-01  1.783670595469E-01  1.909478751744E-01
C12 -1.209164145683E-01 -1.783670595469E-01 -1.909478751744E-01
C13  5.936061279410E-02  9.561626160099E-02  9.573866448881E-02
C14 -5.936061279410E-02 -9.561626160099E-02 -9.573866448881E-02
C15  8.769279788141E-02  2.108645776288E-01  3.406068657050E-02
C16 -8.769279788141E-02 -2.108645776288E-01 -3.406068657050E-02
C17 -2.739164910512E-02 -1.200601673055E-01  5.891912873623E-02
C18  2.739164910512E-02  1.200601673055E-01 -5.891912873623E-02
C19 -5.347214287355E-02 -2.347086649854E-01  1.227136791391E-01
C20  5.347214287355E-02  2.347086649854E-01 -1.227136791391E-01
C21  1.146298673673E-02 -1.518496792807E-01  2.161477350157E-01
C22 -1.146298673673E-02  1.518496792807E-01 -2.161477350157E-01
H23  1.913917678172E-01  9.219022095461E-02  4.816499668005E-01
H24 -1.913917678172E-01 -9.219022095461E-02 -4.816499668005E-01
H25 -8.216436113573E-02 -4.301124137664E-01  2.526568534726E-01
H26  8.216436113573E-02  4.301124137664E-01 -2.526568534726E-01
H27  3.454414137607E-02 -2.774771131156E-01  4.198361784585E-01
H28 -3.454414137607E-02  2.774771131156E-01 -4.198361784585E-01
H29  2.346158410460E-01  3.049079087124E-01  3.734359330398E-01
H30 -2.346158410460E-01 -3.049079087124E-01 -3.734359330398E-01
H31  1.969163471129E-01  3.332199045263E-01  2.182579170175E-01
H32 -1.969163471129E-01 -3.332199045263E-01 -2.182579170175E-01
H33  1.590284089228E-01  3.662905527358E-01  6.151144047766E-02
H34 -1.590284089228E-01 -3.662905527358E-01 -6.151144047766E-02
H35 -1.280141084561E-01 -3.912236120563E-01  9.616405412768E-02
H36  1.280141084561E-01  3.912236120563E-01 -9.616405412768E-02
C37 -4.349065199183E-01 -4.286885316944E-01  4.018197009431E-01
C38  4.349065199183E-01  4.286885316944E-01 -4.018197009431E-01
C39 -4.943565140247E-01 -3.208686040624E-01  3.291690996188E-01
C40  4.943565140247E-01  3.208686040624E-01 -3.291690996188E-01
C41 -4.831587266045E-01 -4.179764539927E-01  2.421131237918E-01
C42  4.831587266045E-01  4.179764539927E-01 -2.421131237918E-01
C43  4.592357746352E-01 -3.067218839207E-01  1.681486811285E-01
C44 -4.592357746352E-01  3.067218839207E-01 -1.681486811285E-01
C45  4.779106506616E-01 -3.998864331872E-01  8.371593318281E-02
C46 -4.779106506616E-01  3.998864331872E-01 -8.371593318281E-02
C47  4.236266714477E-01 -2.886269363330E-01  9.589924657893E-03
C48 -4.236266714477E-01  2.886269363330E-01 -9.589924657893E-03
C49 -4.409346788812E-01  3.796689434509E-01  7.457371899027E-02
C50  4.409346788812E-01 -3.796689434509E-01 -7.457371899027E-02
C51 -3.818032378418E-01  2.741051873744E-01  1.504023138740E-01
C52  3.818032378418E-01 -2.741051873744E-01 -1.504023138740E-01
C53 -3.976586088867E-01  3.657597705890E-01  2.338517030278E-01
C54  3.976586088867E-01 -3.657597705890E-01 -2.338517030278E-01
C55 -3.360866522611E-01  2.613885349540E-01  3.120588455678E-01
C56  3.360866522611E-01 -2.613885349540E-01 -3.120588455678E-01
C57 -3.518337915563E-01  3.555728573606E-01  3.933403177741E-01
C58  3.518337915563E-01 -3.555728573606E-01 -3.933403177741E-01
H59 -4.397331350400E-01 -3.461710702916E-01  4.701430299326E-01
H60  4.397331350400E-01  3.461710702916E-01 -4.701430299326E-01
H61  4.526931209650E-01 -1.525816037529E-01  3.365334772251E-01
H62 -4.526931209650E-01  1.525816037529E-01 -3.365334772251E-01
H63  4.041618933518E-01 -1.398821241168E-01  1.768012578842E-01
H64 -4.041618933518E-01  1.398821241168E-01 -1.768012578842E-01
H65  3.659718028281E-01 -1.221828744939E-01  1.819800169669E-02
H66 -3.659718028281E-01  1.221828744939E-01 -1.819800169669E-02
H67 -3.219807729306E-01  1.087880281974E-01  1.440371931937E-01
H68  3.219807729306E-01 -1.087880281974E-01 -1.440371931937E-01
H69 -2.780277754331E-01  9.529427276495E-02  3.057417323127E-01
H70  2.780277754331E-01 -9.529427276495E-02 -3.057417323127E-01
H71 -3.026723120181E-01  2.736947423854E-01  4.527726687738E-01
H72  3.026723120182E-01 -2.736947423854E-01 -4.527726687738E-01


#===END

data_OPT_STEP_5

_symmetry_space_group_name_H-M 'P 1'
_cell_length_a      8.18871959
_cell_length_b      6.24915187
_cell_length_c     15.92564408
_cell_angle_alpha  100.730448
_cell_angle_beta  112.557316
_cell_angle_gamma   86.945511

loop_
_atom_site_label
_atom_site_fract_x
_atom_site_fract_y
_atom_site_fract_z
C1  1.438755860429E-01  3.011477666303E-02  4.091810627813E-01
C2 -1.438755860429E-01 -3.011477666303E-02 -4.091810627813E-01
C3 -1.305088474386E-02 -2.606886304393E-01  2.829950847449E-01
C4  1.305088474386E-02  2.606886304393E-01 -2.829950847449E-01
C5  5.093510974478E-02 -1.754790057920E-01  3.748319917440E-01
C6 -5.093510974478E-02  1.754790057920E-01 -3.748319917440E-01
C7  1.642034811245E-01  1.490658013844E-01  3.503032808723E-01
C8 -1.642034811245E-01 -1.490658013844E-01 -3.503032808723E-01
C9  1.046956721982E-01  6.263395690728E-02  2.530977221913E-01
C10 -1.046956721982E-01 -6.263395690728E-02 -2.530977221913E-01
C11  1.293775711041E-01  1.748567970043E-01  1.914552002643E-01
C12 -1.293775711041E-01 -1.748567970043E-01 -1.914552002643E-01
C13  6.405442772115E-02  9.197589262372E-02  9.580519061998E-02
C14 -6.405442772115E-02 -9.197589262372E-02 -9.580519061998E-02
C15  8.976306482195E-02  2.029025211030E-01  3.316177347570E-02
C16 -8.976306482195E-02 -2.029025211030E-01 -3.316177347570E-02
C17 -2.427616135970E-02 -1.194951279208E-01  6.134704515718E-02
C18  2.427616135970E-02  1.194951279208E-01 -6.134704515718E-02
C19 -4.663390262411E-02 -2.337336483158E-01  1.249498047035E-01
C20  4.663390262411E-02  2.337336483158E-01 -1.249498047035E-01
C21  1.348259157594E-02 -1.480505335774E-01  2.185285524871E-01
C22 -1.348259157594E-02  1.480505335774E-01 -2.185285524871E-01
H23  1.931691062808E-01  9.484079958302E-02  4.824644492878E-01
H24 -1.931691062808E-01 -9.484079958302E-02 -4.824644492878E-01
H25 -7.322362750447E-02 -4.220811928363E-01  2.579187532122E-01
H26  7.322362750447E-02  4.220811928363E-01 -2.579187532122E-01
H27  3.475421746451E-02 -2.654813879253E-01  4.230752969724E-01
H28 -3.475421746451E-02  2.654813879253E-01 -4.230752969724E-01
H29  2.281509538178E-01  3.096659062163E-01  3.743265683865E-01
H30 -2.281509538178E-01 -3.096659062163E-01 -3.743265683865E-01
H31  1.853408829375E-01  3.409192474332E-01  2.162434509121E-01
H32 -1.853408829375E-01 -3.409192474332E-01 -2.162434509121E-01
H33  1.544227391409E-01  3.623832556840E-01  5.883942939450E-02
H34 -1.544227391409E-01 -3.623832556840E-01 -5.883942939450E-02
H35 -9.905221858158E-02 -4.003383493726E-01  1.003205263898E-01
H36  9.905221858158E-02  4.003383493726E-01 -1.003205263898E-01
C37 -4.295163207282E-01 -4.287886935790E-01  4.022135907251E-01
C38  4.295163207282E-01  4.287886935790E-01 -4.022135907251E-01
C39 -4.945270017453E-01 -3.255309974830E-01  3.282099516184E-01
C40  4.945270017453E-01  3.255309974830E-01 -3.282099516184E-01
C41 -4.726124013965E-01 -4.143832007412E-01  2.434185065893E-01
C42  4.726124013965E-01  4.143832007412E-01 -2.434185065892E-01
C43  4.658017937815E-01 -3.107315184566E-01  1.679611457657E-01
C44 -4.658017937815E-01  3.107315184566E-01 -1.679611457657E-01
C45  4.846571070655E-01 -4.000217590352E-01  8.423848615360E-02
C46 -4.846571070654E-01  4.000217590352E-01 -8.423848615360E-02
C47  4.246390122406E-01 -2.941270590358E-01  8.184320655124E-03
C48 -4.246390122406E-01  2.941270590358E-01 -8.184320655124E-03
C49 -4.427977653599E-01  3.837795023105E-01  7.497151294517E-02
C50  4.427977653599E-01 -3.837795023105E-01 -7.497151294517E-02
C51 -3.908246455199E-01  2.737823590544E-01  1.504518552792E-01
C52  3.908246455199E-01 -2.737823590544E-01 -1.504518552792E-01
C53 -4.018370698563E-01  3.688097074773E-01  2.339579397828E-01
C54  4.018370698563E-01 -3.688097074773E-01 -2.339579397828E-01
C55 -3.450248126706E-01  2.620976137540E-01  3.120153332235E-01
C56  3.450248126706E-01 -2.620976137540E-01 -3.120153332235E-01
C57 -3.563573350711E-01  3.605464308960E-01  3.934186055854E-01
C58  3.563573350711E-01 -3.605464308960E-01 -3.934186055854E-01
H59 -4.338810506303E-01 -3.521248035388E-01  4.668867835595E-01
H60  4.338810506303E-01  3.521248035388E-01 -4.668867835595E-01
H61  4.355418330249E-01 -1.727396260303E-01  3.320728923444E-01
H62 -4.355418330249E-01  1.727396260303E-01 -3.320728923444E-01
H63  4.017595543352E-01 -1.553028891273E-01  1.732778489254E-01
H64 -4.017595543352E-01  1.553028891273E-01 -1.732778489254E-01
H65  3.604718910567E-01 -1.395353427046E-01  1.347021271198E-02
H66 -3.604718910567E-01  1.395353427046E-01 -1.347021271198E-02
H67 -3.266543688410E-01  1.185870991482E-01  1.457203861159E-01
H68  3.266543688410E-01 -1.185870991482E-01 -1.457203861159E-01
H69 -2.733532033896E-01  1.111264567955E-01  3.088717379953E-01
H70  2.733532033896E-01 -1.111264567955E-01 -3.088717379953E-01
H71 -3.081100093543E-01  2.797816992818E-01  4.525267881270E-01
H72  3.081100093543E-01 -2.797816992818E-01 -4.525267881270E-01


#===END

data_OPT_STEP_6

_symmetry_space_group_name_H-M 'P 1'
_cell_length_a      8.22313282
_cell_length_b      6.27414552
_cell_length_c     15.93216345
_cell_angle_alpha  100.645807
_cell_angle_beta  112.499564
_cell_angle_gamma   87.014921

loop_
_atom_site_label
_atom_site_fract_x
_atom_site_fract_y
_atom_site_fract_z
C1  1.413100517766E-01  3.286762463742E-02  4.091264700438E-01
C2 -1.413100517766E-01 -3.286762463742E-02 -4.091264700438E-01
C3 -1.028151144057E-02 -2.600057515612E-01  2.837417861395E-01
C4  1.028151144057E-02  2.600057515612E-01 -2.837417861395E-01
C5  5.157437730430E-02 -1.736529062171E-01  3.753467577427E-01
C6 -5.157437730430E-02  1.736529062171E-01 -3.753467577427E-01
C7  1.645169120264E-01  1.484570760127E-01  3.500834525425E-01
C8 -1.645169120264E-01 -1.484570760127E-01 -3.500834525425E-01
C9  1.042995715817E-01  6.266891694862E-02  2.529829810624E-01
C10 -1.042995715817E-01 -6.266891694862E-02 -2.529829810624E-01
C11  1.306918178847E-01  1.730635506872E-01  1.914274705765E-01
C12 -1.306918178847E-01 -1.730635506872E-01 -1.914274705765E-01
C13  6.696141765898E-02  8.954184277326E-02  9.586743930412E-02
C14 -6.696141765898E-02 -8.954184277326E-02 -9.586743930412E-02
C15  8.877816201706E-02  2.023624726832E-01  3.282364189190E-02
C16 -8.877816201706E-02 -2.023624726832E-01 -3.282364189190E-02
C17 -2.407988587600E-02 -1.194854036156E-01  6.165743846037E-02
C18  2.407988587600E-02  1.194854036156E-01 -6.165743846037E-02
C19 -4.634255780928E-02 -2.324623822972E-01  1.253815905539E-01
C20  4.634255780928E-02  2.324623822972E-01 -1.253815905539E-01
C21  1.345510453894E-02 -1.467797167106E-01  2.188426433260E-01
C22 -1.345510453894E-02  1.467797167106E-01 -2.188426433260E-01
H23  1.876834561984E-01  9.904717208551E-02  4.821830693691E-01
H24 -1.876834561984E-01 -9.904717208551E-02 -4.821830693691E-01
H25 -7.269803160089E-02 -4.191469641317E-01  2.587729971277E-01
H26  7.269803160089E-02  4.191469641317E-01 -2.587729971277E-01
H27  3.431497339229E-02 -2.621032779479E-01  4.236641462365E-01
H28 -3.431497339229E-02  2.621032779479E-01 -4.236641462365E-01
H29  2.289793985301E-01  3.075501329594E-01  3.740405373238E-01
H30 -2.289793985301E-01 -3.075501329594E-01 -3.740405373238E-01
H31  1.893834330726E-01  3.359579289034E-01  2.161617637887E-01
H32 -1.893834330726E-01 -3.359579289034E-01 -2.161617637887E-01
H33  1.510001882175E-01  3.628024548747E-01  5.801114985096E-02
H34 -1.510001882175E-01 -3.628024548747E-01 -5.801114985096E-02
H35 -1.025328778319E-01 -3.956008924556E-01  1.007980283143E-01
H36  1.025328778319E-01  3.956008924556E-01 -1.007980283143E-01
C37 -4.289720785218E-01 -4.280998227219E-01  4.019458550987E-01
C38  4.289720785218E-01  4.280998227219E-01 -4.019458550987E-01
C39 -4.918844322780E-01 -3.237799907475E-01  3.283820570381E-01
C40  4.918844322780E-01  3.237799907475E-01 -3.283820570381E-01
C41 -4.759633858628E-01 -4.159208546456E-01  2.426249787212E-01
C42  4.759633858628E-01  4.159208546456E-01 -2.426249787212E-01
C43  4.647604121192E-01 -3.114390354044E-01  1.675355146940E-01
C44 -4.647604121192E-01  3.114390354044E-01 -1.675355146940E-01
C45  4.818244111361E-01 -4.018012424423E-01  8.355843860638E-02
C46 -4.818244111361E-01  4.018012424423E-01 -8.355843860638E-02
C47  4.240984876182E-01 -2.952709748239E-01  7.836033924036E-03
C48 -4.240984876182E-01  2.952709748239E-01 -7.836033924036E-03
C49 -4.414315170419E-01  3.856972301036E-01  7.531367755944E-02
C50  4.414315170419E-01 -3.856972301036E-01 -7.531367755944E-02
C51 -3.896473969125E-01  2.758794658583E-01  1.508136973645E-01
C52  3.896473969125E-01 -2.758794658583E-01 -1.508136973645E-01
C53 -4.026609656439E-01  3.699552340812E-01  2.338078463937E-01
C54  4.026609656439E-01 -3.699552340812E-01 -2.338078463937E-01
C55 -3.451244737344E-01  2.635774820643E-01  3.119895487464E-01
C56  3.451244737344E-01 -2.635774820643E-01 -3.119895487464E-01
C57 -3.550171394443E-01  3.627669628777E-01  3.934265436779E-01
C58  3.550171394443E-01 -3.627669628777E-01 -3.934265436779E-01
H59 -4.348997340586E-01 -3.524158253712E-01  4.663826443647E-01
H60  4.348997340586E-01  3.524158253712E-01 -4.663826443647E-01
H61  4.455873743135E-01 -1.683750487625E-01  3.334482521874E-01
H62 -4.455873743135E-01  1.683750487625E-01 -3.334482521874E-01
H63  4.031468092150E-01 -1.555838352795E-01  1.730659237839E-01
H64 -4.031468092150E-01  1.555838352795E-01 -1.730659237839E-01
H65  3.641243478192E-01 -1.391551801244E-01  1.363743354012E-02
H66 -3.641243478192E-01  1.391551801244E-01 -1.363743354012E-02
H67 -3.292016584516E-01  1.195280994411E-01  1.454597215654E-01
H68  3.292016584516E-01 -1.195280994411E-01 -1.454597215654E-01
H69 -2.801868601537E-01  1.098648921883E-01  3.076215464492E-01
H70  2.801868601537E-01 -1.098648921883E-01 -3.076215464492E-01
H71 -3.076495700508E-01  2.815479604471E-01  4.523497634289E-01
H72  3.076495700508E-01 -2.815479604471E-01 -4.523497634289E-01


#===END

data_OPT_STEP_7

_symmetry_space_group_name_H-M 'P 1'
_cell_length_a      8.34846125
_cell_length_b      6.28933324
_cell_length_c     15.97399859
_cell_angle_alpha  101.019797
_cell_angle_beta  112.727675
_cell_angle_gamma   86.015347

loop_
_atom_site_label
_atom_site_fract_x
_atom_site_fract_y
_atom_site_fract_z
C1  1.427241847648E-01  3.826585065323E-02  4.093744245616E-01
C2 -1.427241847648E-01 -3.826585065323E-02 -4.093744245616E-01
C3 -3.796882431223E-03 -2.543591027078E-01  2.848317134569E-01
C4  3.796882431223E-03  2.543591027078E-01 -2.848317134569E-01
C5  5.615354702683E-02 -1.668047509029E-01  3.761983947944E-01
C6 -5.615354702683E-02  1.668047509029E-01 -3.761983947944E-01
C7  1.657661954078E-01  1.505061378337E-01  3.500160634762E-01
C8 -1.657661954078E-01 -1.505061378337E-01 -3.500160634762E-01
C9  1.048906203735E-01  6.508744613496E-02  2.529979825655E-01
C10 -1.048906203735E-01 -6.508744613496E-02 -2.529979825655E-01
C11  1.247714120122E-01  1.767022076961E-01  1.908632249451E-01
C12 -1.247714120122E-01 -1.767022076961E-01 -1.908632249451E-01
C13  6.337259642285E-02  9.207339742743E-02  9.545369880027E-02
C14 -6.337259642285E-02 -9.207339742743E-02 -9.545369880027E-02
C15  8.733344589105E-02  2.000395802798E-01  3.243442692627E-02
C16 -8.733344589105E-02 -2.000395802798E-01 -3.243442692627E-02
C17 -2.476469208867E-02 -1.162303986642E-01  6.183800928759E-02
C18  2.476469208867E-02  1.162303986642E-01 -6.183800928759E-02
C19 -4.350338962684E-02 -2.279874940494E-01  1.261656455771E-01
C20  4.350338962684E-02  2.279874940494E-01 -1.261656455771E-01
C21  1.793093497456E-02 -1.435608932831E-01  2.195172008378E-01
C22 -1.793093497456E-02  1.435608932831E-01 -2.195172008378E-01
H23  1.909867214594E-01  1.031789118735E-01  4.825444872420E-01
H24 -1.909867214594E-01 -1.031789118735E-01 -4.825444872420E-01
H25 -6.963440136423E-02 -4.094990427654E-01  2.598572735910E-01
H26  6.963440136423E-02  4.094990427654E-01 -2.598572735910E-01
H27  3.904526279849E-02 -2.529356583096E-01  4.247933154641E-01
H28 -3.904526279849E-02  2.529356583096E-01 -4.247933154641E-01
H29  2.290417855095E-01  3.077513609898E-01  3.736568849076E-01
H30 -2.290417855095E-01 -3.077513609898E-01 -3.736568849076E-01
H31  1.904228636570E-01  3.319149089005E-01  2.157343663494E-01
H32 -1.904228636570E-01 -3.319149089005E-01 -2.157343663494E-01
H33  1.577662389066E-01  3.523713390839E-01  5.784272669745E-02
H34 -1.577662389066E-01 -3.523713390839E-01 -5.784272669745E-02
H35 -1.096010963472E-01 -3.827560641473E-01  1.012082255019E-01
H36  1.096010963472E-01  3.827560641473E-01 -1.012082255019E-01
C37 -4.323961394177E-01 -4.310618354441E-01  4.005810029913E-01
C38  4.323961394177E-01  4.310618354441E-01 -4.005810029913E-01
C39 -4.947848214659E-01 -3.257996051097E-01  3.274168977927E-01
C40  4.947848214659E-01  3.257996051097E-01 -3.274168977927E-01
C41 -4.780093446141E-01 -4.174482122602E-01  2.419619343665E-01
C42  4.780093446141E-01  4.174482122602E-01 -2.419619343665E-01
C43  4.650938697940E-01 -3.103371716756E-01  1.676118471671E-01
C44 -4.650938697940E-01  3.103371716756E-01 -1.676118471671E-01
C45  4.809853506097E-01 -4.019405082610E-01  8.341972514619E-02
C46 -4.809853506097E-01  4.019405082610E-01 -8.341972514619E-02
C47  4.241748270211E-01 -2.943249641635E-01  8.160793534445E-03
C48 -4.241748270211E-01  2.943249641635E-01 -8.160793534445E-03
C49 -4.429003394129E-01  3.843616942472E-01  7.470227391740E-02
C50  4.429003394129E-01 -3.843616942472E-01 -7.470227391740E-02
C51 -3.834087886629E-01  2.779512886328E-01  1.513408996736E-01
C52  3.834087886629E-01 -2.779512886328E-01 -1.513408996736E-01
C53 -4.004241629547E-01  3.699655001828E-01  2.336176468167E-01
C54  4.004241629547E-01 -3.699655001828E-01 -2.336176468167E-01
C55 -3.390721212935E-01  2.642673706646E-01  3.120826528773E-01
C56  3.390721212935E-01 -2.642673706646E-01 -3.120826528773E-01
C57 -3.569036792408E-01  3.590216461913E-01  3.921750037016E-01
C58  3.569036792408E-01 -3.590216461913E-01 -3.921750037016E-01
H59 -4.379808445799E-01 -3.538392484289E-01  4.659088842374E-01
H60  4.379808445799E-01  3.538392484289E-01 -4.659088842374E-01
H61  4.396078469934E-01 -1.710203777945E-01  3.322628447014E-01
H62 -4.396078469934E-01  1.710203777945E-01 -3.322628447014E-01
H63  4.060333974776E-01 -1.522240505811E-01  1.738661723420E-01
H64 -4.060333974776E-01  1.522240505811E-01 -1.738661723420E-01
H65  3.620521965082E-01 -1.380097585235E-01  1.387687810860E-02
H66 -3.620521965082E-01  1.380097585235E-01 -1.387687810860E-02
H67 -3.222564308625E-01  1.209884803651E-01  1.457419314930E-01
H68  3.222564308625E-01 -1.209884803651E-01 -1.457419314930E-01
H69 -2.764608481104E-01  1.082793030821E-01  3.069256304544E-01
H70  2.764608481104E-01 -1.082793030821E-01 -3.069256304544E-01
H71 -3.099312984322E-01  2.770469045805E-01  4.509746104103E-01
H72  3.099312984322E-01 -2.770469045805E-01 -4.509746104103E-01


#===END

data_OPT_STEP_8

_symmetry_space_group_name_H-M 'P 1'
_cell_length_a      8.25014915
_cell_length_b      6.28836743
_cell_length_c     15.96112516
_cell_angle_alpha  100.611519
_cell_angle_beta  112.373480
_cell_angle_gamma   86.581190

loop_
_atom_site_label
_atom_site_fract_x
_atom_site_fract_y
_atom_site_fract_z
C1  1.360618990807E-01  3.671555316148E-02  4.081577715417E-01
C2 -1.360618990807E-01 -3.671555316148E-02 -4.081577715417E-01
C3 -8.839266238816E-03 -2.576847387211E-01  2.843301050056E-01
C4  8.839266238816E-03  2.576847387211E-01 -2.843301050056E-01
C5  4.969636474595E-02 -1.696513757599E-01  3.753464210324E-01
C6 -4.969636474595E-02  1.696513757599E-01 -3.753464210324E-01
C7  1.596341967601E-01  1.501608394630E-01  3.488284123288E-01
C8 -1.596341967601E-01 -1.501608394630E-01 -3.488284123288E-01
C9  9.992671500635E-02  6.466763207560E-02  2.521581973123E-01
C10 -9.992671500635E-02 -6.466763207560E-02 -2.521581973123E-01
C11  1.178077881142E-01  1.796183844036E-01  1.899235563310E-01
C12 -1.178077881142E-01 -1.796183844036E-01 -1.899235563310E-01
C13  5.855964385684E-02  9.376411305836E-02  9.483658201477E-02
C14 -5.855964385684E-02 -9.376411305836E-02 -9.483658201477E-02
C15  8.082737510081E-02  2.056233501391E-01  3.182875252205E-02
C16 -8.082737510081E-02 -2.056233501391E-01 -3.182875252205E-02
C17 -2.403972351900E-02 -1.183009602974E-01  6.203512224903E-02
C18  2.403972351900E-02  1.183009602974E-01 -6.203512224903E-02
C19 -4.413738147281E-02 -2.318337360542E-01  1.261199100601E-01
C20  4.413738147281E-02  2.318337360542E-01 -1.261199100601E-01
C21  1.423141340258E-02 -1.457819993925E-01  2.191027917497E-01
C22 -1.423141340258E-02  1.457819993925E-01 -2.191027917497E-01
H23  1.833561474865E-01  1.018523476177E-01  4.810928722411E-01
H24 -1.833561474865E-01 -1.018523476177E-01 -4.810928722411E-01
H25 -7.292775629131E-02 -4.149430434780E-01  2.597125617900E-01
H26  7.292775629131E-02  4.149430434780E-01 -2.597125617900E-01
H27  3.237961620296E-02 -2.568552386041E-01  4.240245450245E-01
H28 -3.237961620296E-02  2.568552386041E-01 -4.240245450245E-01
H29  2.238497073997E-01  3.079062591424E-01  3.726132312120E-01
H30 -2.238497073997E-01 -3.079062591424E-01 -3.726132312120E-01
H31  1.813095547748E-01  3.373974251031E-01  2.144577390721E-01
H32 -1.813095547748E-01 -3.373974251031E-01 -2.144577390721E-01
H33  1.474350674972E-01  3.612817728869E-01  5.676905471033E-02
H34 -1.474350674972E-01 -3.612817728869E-01 -5.676905471033E-02
H35 -1.086943188965E-01 -3.887200800049E-01  1.014273801196E-01
H36  1.086943188965E-01  3.887200800049E-01 -1.014273801196E-01
C37 -4.289494327086E-01 -4.295687104965E-01  4.009129944694E-01
C38  4.289494327086E-01  4.295687104965E-01 -4.009129944694E-01
C39 -4.858790896968E-01 -3.210512842590E-01  3.287691681977E-01
C40  4.858790896968E-01  3.210512842590E-01 -3.287691681977E-01
C41 -4.721598643378E-01 -4.143718464985E-01  2.428593465542E-01
C42  4.721598643378E-01  4.143718464985E-01 -2.428593465542E-01
C43  4.706136954920E-01 -3.074490021130E-01  1.684070370084E-01
C44 -4.706136954920E-01  3.074490021130E-01 -1.684070370084E-01
C45  4.856329276422E-01 -3.995932319127E-01  8.413347636492E-02
C46 -4.856329276422E-01  3.995932319127E-01 -8.413347636492E-02
C47  4.300704087166E-01 -2.913765625824E-01  9.042312200811E-03
C48 -4.300704087166E-01  2.913765625824E-01 -9.042312200811E-03
C49 -4.441612244863E-01  3.838928611063E-01  7.451677887940E-02
C50  4.441612244863E-01 -3.838928611063E-01 -7.451677887940E-02
C51 -3.847465285418E-01  2.778710592630E-01  1.513504402650E-01
C52  3.847465285418E-01 -2.778710592630E-01 -1.513504402650E-01
C53 -3.984440446737E-01  3.710871294305E-01  2.339580581224E-01
C54  3.984440446737E-01 -3.710871294305E-01 -2.339580581224E-01
C55 -3.380820419951E-01  2.651408295876E-01  3.124178008507E-01
C56  3.380820419951E-01 -2.651408295876E-01 -3.124178008507E-01
C57 -3.543462364610E-01  3.602357888978E-01  3.925513968619E-01
C58  3.543462364610E-01 -3.602357888978E-01 -3.925513968619E-01
H59 -4.360049149131E-01 -3.535732252927E-01  4.662000795588E-01
H60  4.360049149131E-01  3.535732252927E-01 -4.662000795588E-01
H61  4.575855305678E-01 -1.618757146790E-01  3.351646107800E-01
H62 -4.575855305678E-01  1.618757146790E-01 -3.351646107800E-01
H63  4.141804432239E-01 -1.481437970991E-01  1.749248535485E-01
H64 -4.141804432239E-01  1.481437970991E-01 -1.749248535485E-01
H65  3.741173423584E-01 -1.316770923244E-01  1.570308265336E-02
H66 -3.741173423584E-01  1.316770923244E-01 -1.570308265336E-02
H67 -3.284155356426E-01  1.183081762279E-01  1.449381942833E-01
H68  3.284155356426E-01 -1.183081762279E-01 -1.449381942833E-01
H69 -2.810789707759E-01  1.059779075974E-01  3.062825859796E-01
H70  2.810789707759E-01 -1.059779075974E-01 -3.062825859796E-01
H71 -3.069101975674E-01  2.787980862266E-01  4.515482180059E-01
H72  3.069101975674E-01 -2.787980862266E-01 -4.515482180059E-01


#===END

data_OPT_STEP_9

_symmetry_space_group_name_H-M 'P 1'
_cell_length_a      8.31620560
_cell_length_b      6.27217345
_cell_length_c     15.96177708
_cell_angle_alpha  101.090997
_cell_angle_beta  112.251173
_cell_angle_gamma   85.136052

loop_
_atom_site_label
_atom_site_fract_x
_atom_site_fract_y
_atom_site_fract_z
C1  1.388020866390E-01  4.379768515510E-02  4.089023730938E-01
C2 -1.388020866390E-01 -4.379768515510E-02 -4.089023730938E-01
C3 -8.539567280480E-03 -2.471355501800E-01  2.858876878191E-01
C4  8.539567280480E-03  2.471355501800E-01 -2.858876878191E-01
C5  5.160637332086E-02 -1.595129864268E-01  3.768021471975E-01
C6 -5.160637332086E-02  1.595129864268E-01 -3.768021471975E-01
C7  1.624234553585E-01  1.543070898126E-01  3.490876844686E-01
C8 -1.624234553585E-01 -1.543070898126E-01 -3.490876844686E-01
C9  1.025286429888E-01  6.814994079221E-02  2.525655259657E-01
C10 -1.025286429888E-01 -6.814994079221E-02 -2.525655259657E-01
C11  1.222700039975E-01  1.785421109865E-01  1.899284446523E-01
C12 -1.222700039975E-01 -1.785421109865E-01 -1.899284446523E-01
C13  6.112168784933E-02  9.362637222166E-02  9.492874381898E-02
C14 -6.112168784933E-02 -9.362637222166E-02 -9.492874381898E-02
C15  8.267513008530E-02  2.020731079569E-01  3.126215741730E-02
C16 -8.267513008530E-02 -2.020731079569E-01 -3.126215741730E-02
C17 -2.442309706583E-02 -1.153566471469E-01  6.257104408934E-02
C18  2.442309706583E-02  1.153566471469E-01 -6.257104408934E-02
C19 -4.596894580046E-02 -2.240284920425E-01  1.271203272186E-01
C20  4.596894580046E-02  2.240284920425E-01 -1.271203272186E-01
C21  1.426488575995E-02 -1.387377050456E-01  2.200423517912E-01
C22 -1.426488575995E-02  1.387377050456E-01 -2.200423517912E-01
H23  1.852920138248E-01  1.101441639978E-01  4.816566264492E-01
H24 -1.852920138248E-01 -1.101441639978E-01 -4.816566264492E-01
H25 -7.286154888004E-02 -4.026019023888E-01  2.618035880499E-01
H26  7.286154888004E-02  4.026019023888E-01 -2.618035880499E-01
H27  3.423625724935E-02 -2.441277792081E-01  4.259002503285E-01
H28 -3.423625724935E-02  2.441277792081E-01 -4.259002503285E-01
H29  2.262864147197E-01  3.100719825976E-01  3.724663366429E-01
H30 -2.262864147197E-01 -3.100719825976E-01 -3.724663366429E-01
H31  1.874964247476E-01  3.332826557231E-01  2.140051302251E-01
H32 -1.874964247476E-01 -3.332826557231E-01 -2.140051302251E-01
H33  1.491785929108E-01  3.560840056841E-01  5.563714936092E-02
H34 -1.491785929108E-01 -3.560840056841E-01 -5.563714936092E-02
H35 -1.117688608883E-01 -3.785977297336E-01  1.028546278598E-01
H36  1.117688608883E-01  3.785977297336E-01 -1.028546278598E-01
C37 -4.310388618831E-01 -4.300855215728E-01  4.006495691578E-01
C38  4.310388618831E-01  4.300855215728E-01 -4.006495691578E-01
C39 -4.880564456851E-01 -3.198899131479E-01  3.288957962296E-01
C40  4.880564456851E-01  3.198899131479E-01 -3.288957962296E-01
C41 -4.748954814821E-01 -4.148173434703E-01  2.425755253668E-01
C42  4.748954814821E-01  4.148173434703E-01 -2.425755253668E-01
C43  4.654115530274E-01 -3.077304410926E-01  1.680333727013E-01
C44 -4.654115530274E-01  3.077304410926E-01 -1.680333727013E-01
C45  4.829847129218E-01 -3.996365159951E-01  8.395945934592E-02
C46 -4.829847129218E-01  3.996365159951E-01 -8.395945934592E-02
C47  4.260154904018E-01 -2.907109542947E-01  8.935039475097E-03
C48 -4.260154904018E-01  2.907109542947E-01 -8.935039475097E-03
C49 -4.420429289063E-01  3.834636341954E-01  7.451886827278E-02
C50  4.420429289063E-01 -3.834636341954E-01 -7.451886827278E-02
C51 -3.833250230214E-01  2.756246303288E-01  1.508986443743E-01
C52  3.833250230214E-01 -2.756246303288E-01 -1.508986443743E-01
C53 -3.984713488171E-01  3.691285553036E-01  2.334856366103E-01
C54  3.984713488171E-01 -3.691285553036E-01 -2.334856366103E-01
C55 -3.386378215718E-01  2.614128089784E-01  3.115048138727E-01
C56  3.386378215718E-01 -2.614128089784E-01 -3.115048138727E-01
C57 -3.551352005504E-01  3.573454433031E-01  3.918227642571E-01
C58  3.551352005504E-01 -3.573454433031E-01 -3.918227642571E-01
H59 -4.388715650628E-01 -3.537646273329E-01  4.661320016298E-01
H60  4.388715650628E-01  3.537646273329E-01 -4.661320016298E-01
H61  4.574435662261E-01 -1.573503635142E-01  3.362474101404E-01
H62 -4.574435662261E-01  1.573503635142E-01 -3.362474101404E-01
H63  4.065245140036E-01 -1.473782152581E-01  1.746261187789E-01
H64 -4.065245140036E-01  1.473782152581E-01 -1.746261187789E-01
H65  3.686045313901E-01 -1.293800601719E-01  1.582386311033E-02
H66 -3.686045313901E-01  1.293800601719E-01 -1.582386311033E-02
H67 -3.259400457627E-01  1.142518901906E-01  1.441175808918E-01
H68  3.259400457627E-01 -1.142518901906E-01 -1.441175808918E-01
H69 -2.813584414885E-01  9.992956534615E-02  3.048086470429E-01
H70  2.813584414885E-01 -9.992956534615E-02 -3.048086470429E-01
H71 -3.079153035879E-01  2.746314093971E-01  4.505432136677E-01
H72  3.079153035879E-01 -2.746314093971E-01 -4.505432136677E-01


#===END

data_OPT_STEP_10

_symmetry_space_group_name_H-M 'P 1'
_cell_length_a      8.30505188
_cell_length_b      6.31223797
_cell_length_c     15.95754965
_cell_angle_alpha  100.484720
_cell_angle_beta  111.818750
_cell_angle_gamma   86.710296

loop_
_atom_site_label
_atom_site_fract_x
_atom_site_fract_y
_atom_site_fract_z
C1  1.350238202872E-01  3.654514529428E-02  4.074648900797E-01
C2 -1.350238202872E-01 -3.654514529428E-02 -4.074648900797E-01
C3 -7.063105830534E-03 -2.580755701592E-01  2.850668371842E-01
C4  7.063105830534E-03  2.580755701592E-01 -2.850668371842E-01
C5  5.229537051773E-02 -1.710892690488E-01  3.756854215641E-01
C6 -5.229537051773E-02  1.710892690488E-01 -3.756854215641E-01
C7  1.590764840308E-01  1.486863577398E-01  3.478642900318E-01
C8 -1.590764840308E-01 -1.486863577398E-01 -3.478642900318E-01
C9  9.969083865220E-02  6.389880541473E-02  2.516727627135E-01
C10 -9.969083865220E-02 -6.389880541473E-02 -2.516727627135E-01
C11  1.237594277627E-01  1.738317356601E-01  1.895862486763E-01
C12 -1.237594277627E-01 -1.738317356601E-01 -1.895862486763E-01
C13  6.353498993961E-02  9.007857565444E-02  9.488716245171E-02
C14 -6.353498993961E-02 -9.007857565444E-02 -9.488716245171E-02
C15  8.433715939192E-02  2.024198593415E-01  3.148085994828E-02
C16 -8.433715939192E-02 -2.024198593415E-01 -3.148085994828E-02
C17 -2.435909299131E-02 -1.180542846251E-01  6.229686631789E-02
C18  2.435909299131E-02  1.180542846251E-01 -6.229686631789E-02
C19 -4.720389438639E-02 -2.289490747054E-01  1.265667054821E-01
C20  4.720389438639E-02  2.289490747054E-01 -1.265667054821E-01
C21  1.317222022916E-02 -1.448541724581E-01  2.192732662622E-01
C22 -1.317222022916E-02  1.448541724581E-01 -2.192732662622E-01
H23  1.767137828213E-01  1.055440722496E-01  4.797984099858E-01
H24 -1.767137828213E-01 -1.055440722496E-01 -4.797984099858E-01
H25 -7.076851344222E-02 -4.148870019747E-01  2.609613487464E-01
H26  7.076851344222E-02  4.148870019747E-01 -2.609613487464E-01
H27  3.517968654451E-02 -2.577493968615E-01  4.246960281848E-01
H28 -3.517968654451E-02  2.577493968615E-01 -4.246960281848E-01
H29  2.222680339979E-01  3.062399554020E-01  3.714859239392E-01
H30 -2.222680339979E-01 -3.062399554020E-01 -3.714859239392E-01
H31  1.900712781739E-01  3.289587029079E-01  2.138471552099E-01
H32 -1.900712781739E-01 -3.289587029079E-01 -2.138471552099E-01
H33  1.483566183862E-01  3.586918288268E-01  5.566181228463E-02
H34 -1.483566183862E-01 -3.586918288268E-01 -5.566181228463E-02
H35 -1.127679163697E-01 -3.849172645138E-01  1.023049327170E-01
H36  1.127679163697E-01  3.849172645138E-01 -1.023049327170E-01
C37 -4.320451887381E-01 -4.284105731255E-01  4.002734255033E-01
C38  4.320451887381E-01  4.284105731255E-01 -4.002734255033E-01
C39 -4.907467438404E-01 -3.218982300395E-01  3.279001250714E-01
C40  4.907467438404E-01  3.218982300395E-01 -3.279001250714E-01
C41 -4.777951164786E-01 -4.155945432569E-01  2.418378475085E-01
C42  4.777951164786E-01  4.155945432569E-01 -2.418378475085E-01
C43  4.656558270016E-01 -3.095671425636E-01  1.674203706732E-01
C44 -4.656558270016E-01  3.095671425636E-01 -1.674203706732E-01
C45  4.800941186938E-01 -4.022245123809E-01  8.302661498254E-02
C46 -4.800941186938E-01  4.022245123809E-01 -8.302661498254E-02
C47  4.226303468305E-01 -2.967759628627E-01  7.399032779293E-03
C48 -4.226303468305E-01  2.967759628627E-01 -7.399032779293E-03
C49 -4.393235442506E-01  3.884100486362E-01  7.555889814992E-02
C50  4.393235442506E-01 -3.884100486362E-01 -7.555889814992E-02
C51 -3.840986382171E-01  2.815850476903E-01  1.517563836842E-01
C52  3.840986382171E-01 -2.815850476903E-01 -1.517563836842E-01
C53 -3.995178970028E-01  3.739748838847E-01  2.339223432974E-01
C54  3.995178970028E-01 -3.739748838847E-01 -2.339223432974E-01
C55 -3.416813451929E-01  2.676899212687E-01  3.119989244271E-01
C56  3.416813451929E-01 -2.676899212687E-01 -3.119989244271E-01
C57 -3.572493616616E-01  3.627965009129E-01  3.920798415515E-01
C58  3.572493616616E-01 -3.627965009129E-01 -3.920798415515E-01
H59 -4.400355835526E-01 -3.538757624522E-01  4.658723621626E-01
H60  4.400355835526E-01  3.538757624522E-01 -4.658723621626E-01
H61  4.548831662575E-01 -1.620551976133E-01  3.347349999146E-01
H62 -4.548831662575E-01  1.620551976133E-01 -3.347349999146E-01
H63  4.125700216065E-01 -1.491028525517E-01  1.744240953174E-01
H64 -4.125700216065E-01  1.491028525517E-01 -1.744240953174E-01
H65  3.665388579897E-01 -1.376270003507E-01  1.381680561234E-02
H66 -3.665388579897E-01  1.376270003507E-01 -1.381680561234E-02
H67 -3.290488599996E-01  1.219750964861E-01  1.451522945116E-01
H68  3.290488599996E-01 -1.219750964861E-01 -1.451522945116E-01
H69 -2.839372375449E-01  1.095169510103E-01  3.058485499722E-01
H70  2.839372375449E-01 -1.095169510103E-01 -3.058485499722E-01
H71 -3.108383166244E-01  2.823583133040E-01  4.511269173067E-01
H72  3.108383166244E-01 -2.823583133040E-01 -4.511269173067E-01


#===END

data_OPT_STEP_11

_symmetry_space_group_name_H-M 'P 1'
_cell_length_a      8.28897006
_cell_length_b      6.31814874
_cell_length_c     15.94907220
_cell_angle_alpha  100.317895
_cell_angle_beta  111.706746
_cell_angle_gamma   86.894301

loop_
_atom_site_label
_atom_site_fract_x
_atom_site_fract_y
_atom_site_fract_z
C1  1.342680826828E-01  3.627324797310E-02  4.073734297187E-01
C2 -1.342680826828E-01 -3.627324797310E-02 -4.073734297187E-01
C3 -8.760306726953E-03 -2.574959428218E-01  2.851986197009E-01
C4  8.760306726953E-03  2.574959428218E-01 -2.851986197009E-01
C5  5.060568195075E-02 -1.707129695368E-01  3.757442470859E-01
C6 -5.060568195075E-02  1.707129695368E-01 -3.757442470859E-01
C7  1.585384931265E-01  1.484353077409E-01  3.476797982435E-01
C8 -1.585384931265E-01 -1.484353077409E-01 -3.476797982435E-01
C9  9.905068398410E-02  6.391494245203E-02  2.515639961227E-01
C10 -9.905068398410E-02 -6.391494245203E-02 -2.515639961227E-01
C11  1.243638522819E-01  1.731832463022E-01  1.894592188545E-01
C12 -1.243638522819E-01 -1.731832463022E-01 -1.894592188545E-01
C13  6.431022302498E-02  8.950654719581E-02  9.483003736253E-02
C14 -6.431022302498E-02 -8.950654719581E-02 -9.483003736253E-02
C15  8.672807422896E-02  2.007587149911E-01  3.142241632164E-02
C16 -8.672807422896E-02 -2.007587149911E-01 -3.142241632164E-02
C17 -2.512024340409E-02 -1.177112138481E-01  6.235359198628E-02
C18  2.512024340409E-02  1.177112138481E-01 -6.235359198628E-02
C19 -4.798441829144E-02 -2.286665253223E-01  1.267382835307E-01
C20  4.798441829144E-02  2.286665253223E-01 -1.267382835307E-01
C21  1.230814597372E-02 -1.446541249162E-01  2.193635900405E-01
C22 -1.230814597372E-02  1.446541249162E-01 -2.193635900405E-01
H23  1.779470228698E-01  1.037344947455E-01  4.797410475567E-01
H24 -1.779470228698E-01 -1.037344947455E-01 -4.797410475567E-01
H25 -7.404658491908E-02 -4.132400393111E-01  2.611284548566E-01
H26  7.404658491908E-02  4.132400393111E-01 -2.611284548566E-01
H27  3.363173591514E-02 -2.575713405426E-01  4.248376468438E-01
H28 -3.363173591514E-02  2.575713405426E-01 -4.248376468438E-01
H29  2.219503742113E-01  3.058166696663E-01  3.712218748686E-01
H30 -2.219503742113E-01 -3.058166696663E-01 -3.712218748686E-01
H31  1.913128112717E-01  3.278805172987E-01  2.136216113761E-01
H32 -1.913128112717E-01 -3.278805172987E-01 -2.136216113761E-01
H33  1.518843479933E-01  3.563337731171E-01  5.550208719080E-02
H34 -1.518843479933E-01 -3.563337731171E-01 -5.550208719080E-02
H35 -1.140209456454E-01 -3.842705388877E-01  1.026104577108E-01
H36  1.140209456454E-01  3.842705388877E-01 -1.026104577108E-01
C37 -4.318344883084E-01 -4.277263600636E-01  4.004119889763E-01
C38  4.318344883084E-01  4.277263600636E-01 -4.004119889763E-01
C39 -4.906188950100E-01 -3.215623591315E-01  3.279151799720E-01
C40  4.906188950100E-01  3.215623591315E-01 -3.279151799720E-01
C41 -4.789904840433E-01 -4.159839470650E-01  2.416411514916E-01
C42  4.789904840433E-01  4.159839470650E-01 -2.416411514916E-01
C43  4.649082308078E-01 -3.101659654241E-01  1.671644432574E-01
C44 -4.649082308078E-01  3.101659654241E-01 -1.671644432574E-01
C45  4.798149377043E-01 -4.025099296927E-01  8.292257941066E-02
C46 -4.798149377043E-01  4.025099296927E-01 -8.292257941066E-02
C47  4.241713243361E-01 -2.963528871464E-01  7.504718693510E-03
C48 -4.241713243361E-01  2.963528871464E-01 -7.504718693510E-03
C49 -4.409597259841E-01  3.878754812540E-01  7.538674380141E-02
C50  4.409597259841E-01 -3.878754812540E-01 -7.538674380141E-02
C51 -3.857866648631E-01  2.812886165088E-01  1.517072763502E-01
C52  3.857866648631E-01 -2.812886165088E-01 -1.517072763502E-01
C53 -4.015807842800E-01  3.735623181850E-01  2.337589359771E-01
C54  4.015807842800E-01 -3.735623181850E-01 -2.337589359771E-01
C55 -3.436056744843E-01  2.677298981032E-01  3.120184759345E-01
C56  3.436056744843E-01 -2.677298981032E-01 -3.120184759345E-01
C57 -3.573040136719E-01  3.638569084226E-01  3.923391184299E-01
C58  3.573040136719E-01 -3.638569084226E-01 -3.923391184299E-01
H59 -4.402593418021E-01 -3.538132423254E-01  4.657831644651E-01
H60  4.402593418021E-01  3.538132423254E-01 -4.657831644651E-01
H61  4.550709810892E-01 -1.620943803675E-01  3.345807322610E-01
H62 -4.550709810892E-01  1.620943803675E-01 -3.345807322610E-01
H63  4.100075563370E-01 -1.510211917591E-01  1.736629143372E-01
H64 -4.100075563370E-01  1.510211917591E-01 -1.736629143372E-01
H65  3.680631528669E-01 -1.376734023021E-01  1.376600589624E-02
H66 -3.680631528669E-01  1.376734023021E-01 -1.376600589624E-02
H67 -3.291793076597E-01  1.229904970515E-01  1.455427475591E-01
H68  3.291793076597E-01 -1.229904970515E-01 -1.455427475591E-01
H69 -2.867843300755E-01  1.094909099202E-01  3.058409572961E-01
H70  2.867843300755E-01 -1.094909099202E-01 -3.058409572961E-01
H71 -3.109242008396E-01  2.836624680905E-01  4.514557094945E-01
H72  3.109242008396E-01 -2.836624680905E-01 -4.514557094945E-01


#===END

data_OPT_STEP_12

_symmetry_space_group_name_H-M 'P 1'
_cell_length_a      8.28662727
_cell_length_b      6.31489365
_cell_length_c     15.94975568
_cell_angle_alpha  100.447209
_cell_angle_beta  111.722385
_cell_angle_gamma   86.553296

loop_
_atom_site_label
_atom_site_fract_x
_atom_site_fract_y
_atom_site_fract_z
C1  1.341104147867E-01  3.792716012165E-02  4.074655230668E-01
C2 -1.341104147867E-01 -3.792716012165E-02 -4.074655230668E-01
C3 -7.197902107789E-03 -2.567028366846E-01  2.854012576069E-01
C4  7.197902107789E-03  2.567028366846E-01 -2.854012576069E-01
C5  5.094288971462E-02 -1.689650244387E-01  3.758932410355E-01
C6 -5.094288971461E-02  1.689650244387E-01 -3.758932410355E-01
C7  1.582042567008E-01  1.496740053161E-01  3.477065919028E-01
C8 -1.582042567008E-01 -1.496740053161E-01 -3.477065919028E-01
C9  9.869350181830E-02  6.498999476349E-02  2.515833568059E-01
C10 -9.869350181830E-02 -6.498999476349E-02 -2.515833568059E-01
C11  1.228622475198E-01  1.745187753529E-01  1.893591064968E-01
C12 -1.228622475198E-01 -1.745187753529E-01 -1.893591064968E-01
C13  6.329125447348E-02  9.019477149578E-02  9.474598695684E-02
C14 -6.329125447348E-02 -9.019477149578E-02 -9.474598695684E-02
C15  8.455201387484E-02  2.017285308514E-01  3.123213396619E-02
C16 -8.455201387484E-02 -2.017285308514E-01 -3.123213396619E-02
C17 -2.379450551132E-02 -1.179469196967E-01  6.249258268877E-02
C18  2.379450551132E-02  1.179469196967E-01 -6.249258268877E-02
C19 -4.573756528518E-02 -2.290045959908E-01  1.269462550735E-01
C20  4.573756528518E-02  2.290045959908E-01 -1.269462550735E-01
C21  1.355328143946E-02 -1.441665745366E-01  2.195271657851E-01
C22 -1.355328143946E-02  1.441665745366E-01 -2.195271657851E-01
H23  1.779071419954E-01  1.053628086217E-01  4.798420254376E-01
H24 -1.779071419954E-01 -1.053628086217E-01 -4.798420254376E-01
H25 -7.151143383636E-02 -4.127165649536E-01  2.614201760700E-01
H26  7.151143383636E-02  4.127165649536E-01 -2.614201760700E-01
H27  3.381273099140E-02 -2.552522534689E-01  4.250054725502E-01
H28 -3.381273099140E-02  2.552522534689E-01 -4.250054725502E-01
H29  2.214723166190E-01  3.067098878813E-01  3.712065812497E-01
H30 -2.214723166190E-01 -3.067098878813E-01 -3.712065812497E-01
H31  1.882805274474E-01  3.299509098445E-01  2.133962491264E-01
H32 -1.882805274474E-01 -3.299509098445E-01 -2.133962491264E-01
H33  1.479482396804E-01  3.582414604045E-01  5.515823816979E-02
H34 -1.479482396804E-01 -3.582414604045E-01 -5.515823816979E-02
H35 -1.103904207775E-01 -3.850933353803E-01  1.029403134188E-01
H36  1.103904207775E-01  3.850933353803E-01 -1.029403134188E-01
C37 -4.326151349786E-01 -4.281871474617E-01  4.002963323031E-01
C38  4.326151349786E-01  4.281871474617E-01 -4.002963323031E-01
C39 -4.917648599520E-01 -3.217858729870E-01  3.278360700806E-01
C40  4.917648599520E-01  3.217858729870E-01 -3.278360700806E-01
C41 -4.799497630916E-01 -4.163787298146E-01  2.415222126654E-01
C42  4.799497630916E-01  4.163787298146E-01 -2.415222126654E-01
C43  4.641999951945E-01 -3.099809330948E-01  1.671965837178E-01
C44 -4.641999951945E-01  3.099809330948E-01 -1.671965837178E-01
C45  4.795097437256E-01 -4.023964757363E-01  8.296165146824E-02
C46 -4.795097437256E-01  4.023964757363E-01 -8.296165146824E-02
C47  4.243178526579E-01 -2.955207335995E-01  7.732298632746E-03
C48 -4.243178526579E-01  2.955207335995E-01 -7.732298632746E-03
C49 -4.414929698461E-01  3.870853837078E-01  7.516768625275E-02
C50  4.414929698461E-01 -3.870853837078E-01 -7.516768625275E-02
C51 -3.863227594899E-01  2.800740524884E-01  1.513811505174E-01
C52  3.863227594899E-01 -2.800740524884E-01 -1.513811505174E-01
C53 -4.023628958188E-01  3.724674949054E-01  2.334675917195E-01
C54  4.023628958188E-01 -3.724674949054E-01 -2.334675917195E-01
C55 -3.440564786483E-01  2.663862363576E-01  3.116789770807E-01
C56  3.440564786483E-01 -2.663862363576E-01 -3.116789770807E-01
C57 -3.576745524462E-01  3.628439493335E-01  3.920863351341E-01
C58  3.576745524462E-01 -3.628439493335E-01 -3.920863351341E-01
H59 -4.408259175352E-01 -3.540732805725E-01  4.656879551241E-01
H60  4.408259175352E-01  3.540732805725E-01 -4.656879551241E-01
H61  4.531923768742E-01 -1.621959588986E-01  3.345038642667E-01
H62 -4.531923768742E-01  1.621959588986E-01 -3.345038642667E-01
H63  4.084781584683E-01 -1.507301070706E-01  1.736945908265E-01
H64 -4.084781584683E-01  1.507301070706E-01 -1.736945908265E-01
H65  3.676284781741E-01 -1.366542842673E-01  1.404379692618E-02
H66 -3.676284781741E-01  1.366542842673E-01 -1.404379692618E-02
H67 -3.292677517446E-01  1.214814935570E-01  1.451498761536E-01
H68  3.292677517446E-01 -1.214814935570E-01 -1.451498761536E-01
H69 -2.870340700534E-01  1.077622770543E-01  3.053945182609E-01
H70  2.870340700534E-01 -1.077622770543E-01 -3.053945182609E-01
H71 -3.112704937754E-01  2.823038989091E-01  4.511203868405E-01
H72  3.112704937754E-01 -2.823038989091E-01 -4.511203868405E-01


#===END

data_OPT_STEP_13

_symmetry_space_group_name_H-M 'P 1'
_cell_length_a      8.28182169
_cell_length_b      6.31898456
_cell_length_c     15.94074352
_cell_angle_alpha  100.265822
_cell_angle_beta  111.587208
_cell_angle_gamma   86.834457

loop_
_atom_site_label
_atom_site_fract_x
_atom_site_fract_y
_atom_site_fract_z
C1  1.338530806268E-01  3.658120034350E-02  4.073648535643E-01
C2 -1.338530806268E-01 -3.658120034350E-02 -4.073648535643E-01
C3 -9.283925938803E-03 -2.564194582776E-01  2.853678703546E-01
C4  9.283925938803E-03  2.564194582776E-01 -2.853678703546E-01
C5  4.911485464817E-02 -1.692086803201E-01  3.758156093349E-01
C6 -4.911485464817E-02  1.692086803201E-01 -3.758156093349E-01
C7  1.583557975014E-01  1.484801422218E-01  3.475635161166E-01
C8 -1.583557975014E-01 -1.484801422218E-01 -3.475635161166E-01
C9  9.906011872905E-02  6.401579689241E-02  2.515083384503E-01
C10 -9.906011872905E-02 -6.401579689241E-02 -2.515083384503E-01
C11  1.225147834399E-01  1.743373940856E-01  1.891497448206E-01
C12 -1.225147834399E-01 -1.743373940856E-01 -1.891497448206E-01
C13  6.255405356000E-02  9.047181963572E-02  9.459883340529E-02
C14 -6.255405356000E-02 -9.047181963572E-02 -9.459883340529E-02
C15  8.440983710575E-02  2.018354213597E-01  3.103998797674E-02
C16 -8.440983710575E-02 -2.018354213597E-01 -3.103998797674E-02
C17 -2.480609480482E-02 -1.174964953327E-01  6.251780837214E-02
C18  2.480609480482E-02  1.174964953327E-01 -6.251780837214E-02
C19 -4.764178082979E-02 -2.281377958879E-01  1.269478046141E-01
C20  4.764178082979E-02  2.281377958879E-01 -1.269478046141E-01
C21  1.206044854257E-02 -1.440015979979E-01  2.194662188608E-01
C22 -1.206044854257E-02  1.440015979979E-01 -2.194662188608E-01
H23  1.786377592285E-01  1.029934875232E-01  4.797457315227E-01
H24 -1.786377592285E-01 -1.029934875232E-01 -4.797457315227E-01
H25 -7.350079276575E-02 -4.124399780758E-01  2.614934468411E-01
H26  7.350079276575E-02  4.124399780758E-01 -2.614934468411E-01
H27  3.182171473949E-02 -2.556425676902E-01  4.249507634070E-01
H28 -3.182171473949E-02  2.556425676902E-01 -4.249507634070E-01
H29  2.217098689830E-01  3.054090984972E-01  3.709322120138E-01
H30 -2.217098689830E-01 -3.054090984972E-01 -3.709322120138E-01
H31  1.881378347966E-01  3.296059483420E-01  2.130798878022E-01
H32 -1.881378347966E-01 -3.296059483420E-01 -2.130798878022E-01
H33  1.481717880260E-01  3.582546620797E-01  5.485707343064E-02
H34 -1.481717880260E-01 -3.582546620797E-01 -5.485707343064E-02
H35 -1.136014890849E-01 -3.832488598515E-01  1.029722865509E-01
H36  1.136014890849E-01  3.832488598515E-01 -1.029722865509E-01
C37 -4.323522105601E-01 -4.276700081256E-01  4.004530158090E-01
C38  4.323522105601E-01  4.276700081256E-01 -4.004530158090E-01
C39 -4.912123758452E-01 -3.216315379677E-01  3.278866629419E-01
C40  4.912123758452E-01  3.216315379677E-01 -3.278866629419E-01
C41 -4.784159529584E-01 -4.154887623426E-01  2.418277487139E-01
C42  4.784159529584E-01  4.154887623426E-01 -2.418277487139E-01
C43  4.646775369513E-01 -3.102696990523E-01  1.671649547406E-01
C44 -4.646775369513E-01  3.102696990523E-01 -1.671649547406E-01
C45  4.804804422477E-01 -4.020866501275E-01  8.309183460593E-02
C46 -4.804804422477E-01  4.020866501275E-01 -8.309183460593E-02
C47  4.242457315212E-01 -2.961825282513E-01  7.547382442789E-03
C48 -4.242457315212E-01  2.961825282513E-01 -7.547382442789E-03
C49 -4.413606691681E-01  3.875756177809E-01  7.532357990664E-02
C50  4.413606691681E-01 -3.875756177809E-01 -7.532357990664E-02
C51 -3.852213710858E-01  2.813954917927E-01  1.518457774995E-01
C52  3.852213710858E-01 -2.813954917927E-01 -1.518457774995E-01
C53 -4.009933124206E-01  3.739168173264E-01  2.339330823842E-01
C54  4.009933124206E-01 -3.739168173264E-01 -2.339330823842E-01
C55 -3.416500785663E-01  2.686737176367E-01  3.124498387246E-01
C56  3.416500785663E-01 -2.686737176367E-01 -3.124498387246E-01
C57 -3.565619938822E-01  3.645397737209E-01  3.926097207240E-01
C58  3.565619938822E-01 -3.645397737209E-01 -3.926097207240E-01
H59 -4.409838428876E-01 -3.539340524006E-01  4.655224416536E-01
H60  4.409838428876E-01  3.539340524006E-01 -4.655224416536E-01
H61  4.524678667211E-01 -1.633278711331E-01  3.341101842670E-01
H62 -4.524678667211E-01  1.633278711331E-01 -3.341101842670E-01
H63  4.072098462665E-01 -1.524831438040E-01  1.731710709580E-01
H64 -4.072098462665E-01  1.524831438040E-01 -1.731710709580E-01
H65  3.660477049660E-01 -1.388383454295E-01  1.343402278786E-02
H66 -3.660477049660E-01  1.388383454295E-01 -1.343402278786E-02
H67 -3.282669151170E-01  1.233535234849E-01  1.457642665925E-01
H68  3.282669151170E-01 -1.233535234849E-01 -1.457642665925E-01
H69 -2.838945562550E-01  1.112031313490E-01  3.064980664272E-01
H70  2.838945562550E-01 -1.112031313490E-01 -3.064980664272E-01
H71 -3.104578867609E-01  2.841142185836E-01  4.516593015594E-01
H72  3.104578867609E-01 -2.841142185836E-01 -4.516593015594E-01


#===END

data_OPT_STEP_14

_symmetry_space_group_name_H-M 'P 1'
_cell_length_a      8.28386098
_cell_length_b      6.31116229
_cell_length_c     15.93847089
_cell_angle_alpha  100.306529
_cell_angle_beta  111.575723
_cell_angle_gamma   86.584518

loop_
_atom_site_label
_atom_site_fract_x
_atom_site_fract_y
_atom_site_fract_z
C1  1.331097130687E-01  3.878494178707E-02  4.074823894278E-01
C2 -1.331097130687E-01 -3.878494178707E-02 -4.074823894278E-01
C3 -1.021740542058E-02 -2.539780401028E-01  2.856592894506E-01
C4  1.021740542058E-02  2.539780401028E-01 -2.856592894506E-01
C5  4.845043712071E-02 -1.667968631528E-01  3.760927604133E-01
C6 -4.845043712071E-02  1.667968631528E-01 -3.760927604133E-01
C7  1.576814527784E-01  1.502169247280E-01  3.475538922606E-01
C8 -1.576814527784E-01 -1.502169247280E-01 -3.475538922606E-01
C9  9.865846551993E-02  6.533639630776E-02  2.515375031095E-01
C10 -9.865846551993E-02 -6.533639630776E-02 -2.515375031095E-01
C11  1.221366829270E-01  1.751831332299E-01  1.890590930836E-01
C12 -1.221366829270E-01 -1.751831332299E-01 -1.890590930836E-01
C13  6.240946741947E-02  9.093962584287E-02  9.453912093000E-02
C14 -6.240946741947E-02 -9.093962584287E-02 -9.453912093000E-02
C15  8.492525018529E-02  2.011825569247E-01  3.089619160020E-02
C16 -8.492525018529E-02 -2.011825569247E-01 -3.089619160020E-02
C17 -2.522536694883E-02 -1.167712581127E-01  6.263057389738E-02
C18  2.522536694883E-02  1.167712581127E-01 -6.263057389738E-02
C19 -4.783011153712E-02 -2.269554257797E-01  1.271929083360E-01
C20  4.783011153712E-02  2.269554257797E-01 -1.271929083360E-01
C21  1.156238170281E-02 -1.424218739477E-01  2.196654717316E-01
C22 -1.156238170281E-02  1.424218739477E-01 -2.196654717316E-01
H23  1.777999234455E-01  1.053992196153E-01  4.798289901215E-01
H24 -1.777999234455E-01 -1.053992196153E-01 -4.798289901215E-01
H25 -7.465791613783E-02 -4.096378128296E-01  2.618920573751E-01
H26  7.465791613783E-02  4.096378128296E-01 -2.618920573751E-01
H27  3.152169967165E-02 -2.530718057705E-01  4.253388661148E-01
H28 -3.152169967165E-02  2.530718057705E-01 -4.253388661148E-01
H29  2.212245099679E-01  3.066888832224E-01  3.708381570684E-01
H30 -2.212245099679E-01 -3.066888832224E-01 -3.708381570684E-01
H31  1.874667696451E-01  3.304317865922E-01  2.128490521937E-01
H32 -1.874667696451E-01 -3.304317865922E-01 -2.128490521937E-01
H33  1.494538632140E-01  3.569561584000E-01  5.462919847558E-02
H34 -1.494538632140E-01 -3.569561584000E-01 -5.462919847558E-02
H35 -1.132880077705E-01 -3.821294117311E-01  1.033855459654E-01
H36  1.132880077705E-01  3.821294117311E-01 -1.033855459654E-01
C37 -4.326972707804E-01 -4.280862143404E-01  4.004231137200E-01
C38  4.326972707804E-01  4.280862143404E-01 -4.004231137200E-01
C39 -4.911351054799E-01 -3.213474217199E-01  3.279793787032E-01
C40  4.911351054799E-01  3.213474217199E-01 -3.279793787032E-01
C41 -4.778400287015E-01 -4.151579323568E-01  2.419747645620E-01
C42  4.778400287015E-01  4.151579323568E-01 -2.419747645620E-01
C43  4.662210796235E-01 -3.088993470687E-01  1.675444455628E-01
C44 -4.662210796235E-01  3.088993470687E-01 -1.675444455628E-01
C45  4.814418179567E-01 -4.013427382312E-01  8.332106213449E-02
C46 -4.814418179567E-01  4.013427382312E-01 -8.332106213449E-02
C47  4.260717448108E-01 -2.944418202505E-01  7.988711768815E-03
C48 -4.260717448108E-01  2.944418202505E-01 -7.988711768815E-03
C49 -4.423160262720E-01  3.865133487550E-01  7.508657506457E-02
C50  4.423160262720E-01 -3.865133487550E-01 -7.508657506457E-02
C51 -3.866450322670E-01  2.796839863850E-01  1.514857578130E-01
C52  3.866450322670E-01 -2.796839863850E-01 -1.514857578130E-01
C53 -4.017442511443E-01  3.726998548802E-01  2.337286306470E-01
C54  4.017442511443E-01 -3.726998548802E-01 -2.337286306470E-01
C55 -3.427876565894E-01  2.668495553697E-01  3.121262747550E-01
C56  3.427876565894E-01 -2.668495553697E-01 -3.121262747550E-01
C57 -3.574014747298E-01  3.631005162903E-01  3.923815197308E-01
C58  3.574014747298E-01 -3.631005162903E-01 -3.923815197308E-01
H59 -4.411674306835E-01 -3.541879809620E-01  4.654626201844E-01
H60  4.411674306835E-01  3.541879809620E-01 -4.654626201844E-01
H61  4.525528587348E-01 -1.625714665316E-01  3.342729422717E-01
H62 -4.525528587348E-01  1.625714665316E-01 -3.342729422717E-01
H63  4.101335850734E-01 -1.498991220523E-01  1.738739791190E-01
H64 -4.101335850734E-01  1.498991220523E-01 -1.738739791190E-01
H65  3.695659362861E-01 -1.356901621137E-01  1.426106501287E-02
H66 -3.695659362861E-01  1.356901621137E-01 -1.426106501287E-02
H67 -3.307149857849E-01  1.205441687747E-01  1.451414452398E-01
H68  3.307149857849E-01 -1.205441687747E-01 -1.451414452398E-01
H69 -2.854406021618E-01  1.086670130472E-01  3.060341997949E-01
H70  2.854406021618E-01 -1.086670130472E-01 -3.060341997949E-01
H71 -3.109678142830E-01  2.824727514711E-01  4.514337004365E-01
H72  3.109678142830E-01 -2.824727514711E-01 -4.514337004365E-01


#===END

data_OPT_STEP_15

_symmetry_space_group_name_H-M 'P 1'
_cell_length_a      8.28184220
_cell_length_b      6.31060731
_cell_length_c     15.93647133
_cell_angle_alpha  100.326863
_cell_angle_beta  111.457010
_cell_angle_gamma   86.621058

loop_
_atom_site_label
_atom_site_fract_x
_atom_site_fract_y
_atom_site_fract_z
C1  1.336899689060E-01  3.712825029527E-02  4.073330199664E-01
C2 -1.336899689060E-01 -3.712825029527E-02 -4.073330199664E-01
C3 -8.859790532570E-03 -2.558949142462E-01  2.855343244622E-01
C4  8.859790532570E-03  2.558949142462E-01 -2.855343244622E-01
C5  4.968727921060E-02 -1.689207306003E-01  3.759398960698E-01
C6 -4.968727921060E-02  1.689207306003E-01 -3.759398960698E-01
C7  1.575662093396E-01  1.492749930814E-01  3.474154990553E-01
C8 -1.575662093396E-01 -1.492749930814E-01 -3.474154990553E-01
C9  9.918055730567E-02  6.421767492736E-02  2.514643393029E-01
C10 -9.918055730567E-02 -6.421767492736E-02 -2.514643393029E-01
C11  1.216307729169E-01  1.750494893196E-01  1.889705302383E-01
C12 -1.216307729169E-01 -1.750494893196E-01 -1.889705302383E-01
C13  6.225561138072E-02  9.076142784106E-02  9.451459961098E-02
C14 -6.225561138072E-02 -9.076142784106E-02 -9.451459961098E-02
C15  8.431301600774E-02  2.015949892811E-01  3.089459848657E-02
C16 -8.431301600774E-02 -2.015949892811E-01 -3.089459848657E-02
C17 -2.459181421925E-02 -1.174149939329E-01  6.258779205490E-02
C18  2.459181421925E-02  1.174149939329E-01 -6.258779205490E-02
C19 -4.537566317085E-02 -2.291698510927E-01  1.272325781325E-01
C20  4.537566317085E-02  2.291698510927E-01 -1.272325781325E-01
C21  1.316938150512E-02 -1.442317756466E-01  2.196289186764E-01
C22 -1.316938150512E-02  1.442317756466E-01 -2.196289186764E-01
H23  1.780116702612E-01  1.038237877514E-01  4.796496625334E-01
H24 -1.780116702612E-01 -1.038237877514E-01 -4.796496625334E-01
H25 -7.291963434108E-02 -4.117853398834E-01  2.617429219492E-01
H26  7.291963434108E-02  4.117853398834E-01 -2.617429219492E-01
H27  3.269599615731E-02 -2.553546078242E-01  4.251279015892E-01
H28 -3.269599615731E-02  2.553546078242E-01 -4.251279015892E-01
H29  2.204241022309E-01  3.062078904530E-01  3.706839706445E-01
H30 -2.204241022309E-01 -3.062078904530E-01 -3.706839706445E-01
H31  1.860063068705E-01  3.309474377196E-01  2.127424540763E-01
H32 -1.860063068705E-01 -3.309474377196E-01 -2.127424540763E-01
H33  1.496601010770E-01  3.568491881930E-01  5.470559535357E-02
H34 -1.496601010770E-01 -3.568491881930E-01 -5.470559535357E-02
H35 -1.088630925255E-01 -3.855337129326E-01  1.035323765645E-01
H36  1.088630925255E-01  3.855337129326E-01 -1.035323765645E-01
C37 -4.339805230606E-01 -4.283354738661E-01  4.001944201463E-01
C38  4.339805230606E-01  4.283354738661E-01 -4.001944201463E-01
C39 -4.922500668385E-01 -3.216510913548E-01  3.278077266410E-01
C40  4.922500668385E-01  3.216510913548E-01 -3.278077266410E-01
C41 -4.787536325539E-01 -4.154598998495E-01  2.418223870509E-01
C42  4.787536325539E-01  4.154598998495E-01 -2.418223870509E-01
C43  4.637159188645E-01 -3.103129611578E-01  1.671319862758E-01
C44 -4.637159188645E-01  3.103129611578E-01 -1.671319862758E-01
C45  4.804124694274E-01 -4.018489243573E-01  8.317646249436E-02
C46 -4.804124694274E-01  4.018489243573E-01 -8.317646249436E-02
C47  4.245375407481E-01 -2.953120715462E-01  7.795013184768E-03
C48 -4.245375407481E-01  2.953120715462E-01 -7.795013184768E-03
C49 -4.416628589329E-01  3.869281106285E-01  7.515502351731E-02
C50  4.416628589329E-01 -3.869281106285E-01 -7.515502351731E-02
C51 -3.848404600909E-01  2.806818417343E-01  1.517082217214E-01
C52  3.848404600909E-01 -2.806818417343E-01 -1.517082217214E-01
C53 -4.015131595269E-01  3.730745165237E-01  2.337277699860E-01
C54  4.015131595269E-01 -3.730745165237E-01 -2.337277699860E-01
C55 -3.429486766989E-01  2.670479693905E-01  3.119726231572E-01
C56  3.429486766989E-01 -2.670479693905E-01 -3.119726231572E-01
C57 -3.587448508147E-01  3.628010048346E-01  3.920718215591E-01
C58  3.587448508147E-01 -3.628010048346E-01 -3.920718215591E-01
H59 -4.422276830708E-01 -3.542890508059E-01  4.652591416530E-01
H60  4.422276830708E-01  3.542890508059E-01 -4.652591416530E-01
H61  4.515507248931E-01 -1.628846884540E-01  3.341479382878E-01
H62 -4.515507248931E-01  1.628846884540E-01 -3.341479382878E-01
H63  4.061690646646E-01 -1.521108639535E-01  1.732548451051E-01
H64 -4.061690646646E-01  1.521108639535E-01 -1.732548451051E-01
H65  3.675666370873E-01 -1.368840791619E-01  1.405546536505E-02
H66 -3.675666370873E-01  1.368840791619E-01 -1.405546536505E-02
H67 -3.266944846052E-01  1.228551921658E-01  1.457176199355E-01
H68  3.266944846052E-01 -1.228551921658E-01 -1.457176199355E-01
H69 -2.851682556952E-01  1.092053819996E-01  3.059153643421E-01
H70  2.851682556952E-01 -1.092053819996E-01 -3.059153643421E-01
H71 -3.123093237600E-01  2.823309851471E-01  4.511064600057E-01
H72  3.123093237600E-01 -2.823309851471E-01 -4.511064600057E-01


#===END

data_OPT_STEP_16

_symmetry_space_group_name_H-M 'P 1'
_cell_length_a      8.25592646
_cell_length_b      6.30284961
_cell_length_c     15.93062768
_cell_angle_alpha  100.335556
_cell_angle_beta  111.262454
_cell_angle_gamma   86.475079

loop_
_atom_site_label
_atom_site_fract_x
_atom_site_fract_y
_atom_site_fract_z
C1  1.328901953668E-01  3.730474844731E-02  4.070903357429E-01
C2 -1.328901953668E-01 -3.730474844731E-02 -4.070903357429E-01
C3 -9.349524549232E-03 -2.558842640558E-01  2.856191647722E-01
C4  9.349524549232E-03  2.558842640558E-01 -2.856191647722E-01
C5  4.900298029170E-02 -1.688416942389E-01  3.759113699873E-01
C6 -4.900298029170E-02  1.688416942389E-01 -3.759113699873E-01
C7  1.557482647705E-01  1.502233483067E-01  3.470491034511E-01
C8 -1.557482647705E-01 -1.502233483067E-01 -3.470491034511E-01
C9  9.737589090007E-02  6.525727211325E-02  2.512149030883E-01
C10 -9.737589090007E-02 -6.525727211325E-02 -2.512149030883E-01
C11  1.201901310154E-01  1.759502361159E-01  1.886744471421E-01
C12 -1.201901310154E-01 -1.759502361159E-01 -1.886744471421E-01
C13  6.166801039192E-02  9.111774405781E-02  9.435896599406E-02
C14 -6.166801039192E-02 -9.111774405781E-02 -9.435896599406E-02
C15  8.383100209658E-02  2.019379901135E-01  3.068149038602E-02
C16 -8.383100209658E-02 -2.019379901135E-01 -3.068149038602E-02
C17 -2.471478094135E-02 -1.174186396945E-01  6.267844623716E-02
C18  2.471478094135E-02  1.174186396945E-01 -6.267844623716E-02
C19 -4.612437784351E-02 -2.287751981091E-01  1.273340386230E-01
C20  4.612437784351E-02  2.287751981091E-01 -1.273340386230E-01
C21  1.224381250314E-02 -1.438014256437E-01  2.196197242804E-01
C22 -1.224381250314E-02  1.438014256437E-01 -2.196197242804E-01
H23  1.781547825882E-01  1.033606385386E-01  4.793796191407E-01
H24 -1.781547825882E-01 -1.033606385386E-01 -4.793796191407E-01
H25 -7.310625344991E-02 -4.119678990923E-01  2.619662835984E-01
H26  7.310625344991E-02  4.119678990923E-01 -2.619662835984E-01
H27  3.197397439781E-02 -2.552357414544E-01  4.251580556121E-01
H28 -3.197397439781E-02  2.552357414544E-01 -4.251580556121E-01
H29  2.182986782573E-01  3.073255849936E-01  3.702553723223E-01
H30 -2.182986782573E-01 -3.073255849936E-01 -3.702553723223E-01
H31  1.843442305317E-01  3.319948465242E-01  2.123012289575E-01
H32 -1.843442305317E-01 -3.319948465242E-01 -2.123012289575E-01
H33  1.490827294192E-01  3.573031729358E-01  5.433657883700E-02
H34 -1.490827294192E-01 -3.573031729358E-01 -5.433657883700E-02
H35 -1.097483998025E-01 -3.850479778941E-01  1.037550034202E-01
H36  1.097483998025E-01  3.850479778941E-01 -1.037550034202E-01
C37 -4.347252053760E-01 -4.287011188173E-01  4.000438909031E-01
C38  4.347252053760E-01  4.287011188173E-01 -4.000438909031E-01
C39 -4.927630216563E-01 -3.214580518128E-01  3.278147791316E-01
C40  4.927630216563E-01  3.214580518128E-01 -3.278147791316E-01
C41 -4.794265427651E-01 -4.156563218533E-01  2.417313026933E-01
C42  4.794265427651E-01  4.156563218533E-01 -2.417313026933E-01
C43  4.636256274490E-01 -3.097586176572E-01  1.672623534053E-01
C44 -4.636256274490E-01  3.097586176572E-01 -1.672623534053E-01
C45  4.803335442622E-01 -4.015991041319E-01  8.324045578395E-02
C46 -4.803335442622E-01  4.015991041319E-01 -8.324045578395E-02
C47  4.247335411536E-01 -2.944997638088E-01  8.010316308136E-03
C48 -4.247335411536E-01  2.944997638088E-01 -8.010316308136E-03
C49 -4.425388100076E-01  3.859993388493E-01  7.487560963569E-02
C50  4.425388100076E-01 -3.859993388493E-01 -7.487560963569E-02
C51 -3.861284708558E-01  2.791801564649E-01  1.512596530553E-01
C52  3.861284708558E-01 -2.791801564649E-01 -1.512596530553E-01
C53 -4.028094300459E-01  3.717652692234E-01  2.333307810486E-01
C54  4.028094300459E-01 -3.717652692234E-01 -2.333307810486E-01
C55 -3.443753036674E-01  2.653154167359E-01  3.114492226300E-01
C56  3.443753036674E-01 -2.653154167359E-01 -3.114492226300E-01
C57 -3.599317266780E-01  3.614408303527E-01  3.916365656156E-01
C58  3.599317266780E-01 -3.614408303527E-01 -3.916365656156E-01
H59 -4.430787071126E-01 -3.546072438313E-01  4.651317155524E-01
H60  4.430787071126E-01  3.546072438313E-01 -4.651317155524E-01
H61  4.511392677763E-01 -1.621359997317E-01  3.343093233185E-01
H62 -4.511392677763E-01  1.621359997317E-01 -3.343093233185E-01
H63  4.064864344552E-01 -1.508500312479E-01  1.735993155203E-01
H64 -4.064864344552E-01  1.508500312479E-01 -1.735993155203E-01
H65  3.672059495794E-01 -1.358604126683E-01  1.430774322823E-02
H66 -3.672059495794E-01  1.358604126683E-01 -1.430774322823E-02
H67 -3.277200108990E-01  1.209754852993E-01  1.451703428969E-01
H68  3.277200108990E-01 -1.209754852993E-01 -1.451703428969E-01
H69 -2.863346561954E-01  1.070903480656E-01  3.052843932748E-01
H70  2.863346561954E-01 -1.070903480656E-01 -3.052843932748E-01
H71 -3.132542260370E-01  2.808676633242E-01  4.506395776458E-01
H72  3.132542260370E-01 -2.808676633242E-01 -4.506395776458E-01


#===END

data_OPT_STEP_17

_symmetry_space_group_name_H-M 'P 1'
_cell_length_a      8.26411009
_cell_length_b      6.30597073
_cell_length_c     15.92932168
_cell_angle_alpha  100.261372
_cell_angle_beta  111.051479
_cell_angle_gamma   86.493061

loop_
_atom_site_label
_atom_site_fract_x
_atom_site_fract_y
_atom_site_fract_z
C1  1.318114531396E-01  3.756361346602E-02  4.067684576808E-01
C2 -1.318114531396E-01 -3.756361346602E-02 -4.067684576808E-01
C3 -9.727286548322E-03 -2.554958299971E-01  2.857450422880E-01
C4  9.727286548322E-03  2.554958299971E-01 -2.857450422880E-01
C5  4.820451317804E-02 -1.683937190466E-01  3.758705062999E-01
C6 -4.820451317804E-02  1.683937190466E-01 -3.758705062999E-01
C7  1.549393594896E-01  1.501283994550E-01  3.465964585005E-01
C8 -1.549393594896E-01 -1.501283994550E-01 -3.465964585005E-01
C9  9.682411030388E-02  6.527060444441E-02  2.509470615937E-01
C10 -9.682411030388E-02 -6.527060444441E-02 -2.509470615937E-01
C11  1.193401651301E-01  1.759807256380E-01  1.882620048734E-01
C12 -1.193401651301E-01 -1.759807256380E-01 -1.882620048734E-01
C13  6.080395114224E-02  9.145178411994E-02  9.413509691592E-02
C14 -6.080395114224E-02 -9.145178411994E-02 -9.413509691592E-02
C15  8.282397948271E-02  2.022686353438E-01  3.036207734639E-02
C16 -8.282397948271E-02 -2.022686353438E-01 -3.036207734639E-02
C17 -2.439090896733E-02 -1.174702278657E-01  6.279904343675E-02
C18  2.439090896733E-02  1.174702278657E-01 -6.279904343675E-02
C19 -4.594215400568E-02 -2.286413555464E-01  1.275425543299E-01
C20  4.594215400568E-02  2.286413555464E-01 -1.275425543299E-01
C21  1.206765439113E-02 -1.437153744315E-01  2.196586389864E-01
C22 -1.206765439113E-02  1.437153744315E-01 -2.196586389864E-01
H23  1.771272035578E-01  1.035880826338E-01  4.789491372478E-01
H24 -1.771272035578E-01 -1.035880826338E-01 -4.789491372478E-01
H25 -7.355024203782E-02 -4.112874061332E-01  2.622730966299E-01
H26  7.355024203782E-02  4.112874061332E-01 -2.622730966299E-01
H27  3.116720484366E-02 -2.547972541254E-01  4.251710152905E-01
H28 -3.116720484366E-02  2.547972541254E-01 -4.251710152905E-01
H29  2.167922336742E-01  3.073218925682E-01  3.695917331954E-01
H30 -2.167922336742E-01 -3.073218925682E-01 -3.695917331954E-01
H31  1.832000256126E-01  3.319475307273E-01  2.116757146844E-01
H32 -1.832000256126E-01 -3.319475307273E-01 -2.116757146844E-01
H33  1.464840702201E-01  3.584205320144E-01  5.370507550141E-02
H34 -1.464840702201E-01 -3.584205320144E-01 -5.370507550141E-02
H35 -1.093992614100E-01 -3.847950197575E-01  1.041544646952E-01
H36  1.093992614100E-01  3.847950197575E-01 -1.041544646952E-01
C37 -4.363449872142E-01 -4.292593856926E-01  3.996975875490E-01
C38  4.363449872142E-01  4.292593856926E-01 -3.996975875490E-01
C39 -4.943482586308E-01 -3.222175920861E-01  3.274692799840E-01
C40  4.943482586308E-01  3.222175920861E-01 -3.274692799840E-01
C41 -4.805401586111E-01 -4.161147720136E-01  2.414941023859E-01
C42  4.805401586111E-01  4.161147720136E-01 -2.414941023859E-01
C43  4.635793404006E-01 -3.097836373920E-01  1.672120182500E-01
C44 -4.635793404006E-01  3.097836373920E-01 -1.672120182500E-01
C45  4.806095410041E-01 -4.014552550307E-01  8.327890445008E-02
C46 -4.806095410041E-01  4.014552550307E-01 -8.327890445008E-02
C47  4.262869481252E-01 -2.938151768801E-01  8.283807626127E-03
C48 -4.262869481252E-01  2.938151768801E-01 -8.283807626127E-03
C49 -4.436740630154E-01  3.855025308827E-01  7.466598631451E-02
C50  4.436740630154E-01 -3.855025308827E-01 -7.466598631451E-02
C51 -3.882680614115E-01  2.784523859495E-01  1.508666714661E-01
C52  3.882680614115E-01 -2.784523859495E-01 -1.508666714661E-01
C53 -4.043590702196E-01  3.712537486652E-01  2.330299934660E-01
C54  4.043590702196E-01 -3.712537486652E-01 -2.330299934660E-01
C55 -3.457212499441E-01  2.651483634159E-01  3.111838373178E-01
C56  3.457212499441E-01 -2.651483634159E-01 -3.111838373178E-01
C57 -3.609151689872E-01  3.614339259723E-01  3.914128310024E-01
C58  3.609151689872E-01 -3.614339259723E-01 -3.914128310024E-01
H59 -4.451514190050E-01 -3.552002677587E-01  4.647655355616E-01
H60  4.451514190050E-01  3.552002677587E-01 -4.647655355616E-01
H61  4.486859108008E-01 -1.633644822543E-01  3.338012730676E-01
H62 -4.486859108008E-01  1.633644822543E-01 -3.338012730676E-01
H63  4.056539553722E-01 -1.513844521899E-01  1.734090531545E-01
H64 -4.056539553722E-01  1.513844521899E-01 -1.734090531545E-01
H65  3.690925205977E-01 -1.350655834941E-01  1.464774413768E-02
H66 -3.690925205977E-01  1.350655834941E-01 -1.464774413768E-02
H67 -3.311414155730E-01  1.196068635359E-01  1.445613543444E-01
H68  3.311414155730E-01 -1.196068635359E-01 -1.445613543444E-01
H69 -2.879747449700E-01  1.068002273134E-01  3.049656941281E-01
H70  2.879747449700E-01 -1.068002273134E-01 -3.049656941281E-01
H71 -3.146268452425E-01  2.808164786437E-01  4.503532942436E-01
H72  3.146268452425E-01 -2.808164786437E-01 -4.503532942436E-01


#===END

data_OPT_STEP_18

_symmetry_space_group_name_H-M 'P 1'
_cell_length_a      8.25263968
_cell_length_b      6.30176623
_cell_length_c     15.92628086
_cell_angle_alpha  100.175704
_cell_angle_beta  110.853777
_cell_angle_gamma   86.488064

loop_
_atom_site_label
_atom_site_fract_x
_atom_site_fract_y
_atom_site_fract_z
C1  1.291216231109E-01  3.892185868551E-02  4.063946867314E-01
C2 -1.291216231109E-01 -3.892185868551E-02 -4.063946867314E-01
C3 -1.155568701479E-02 -2.546256592364E-01  2.858124884128E-01
C4  1.155568701479E-02  2.546256592364E-01 -2.858124884128E-01
C5  4.538727032099E-02 -1.668770945195E-01  3.757517322126E-01
C6 -4.538727032099E-02  1.668770945195E-01 -3.757517322126E-01
C7  1.532313932247E-01  1.507994709930E-01  3.461172265403E-01
C8 -1.532313932247E-01 -1.507994709930E-01 -3.461172265403E-01
C9  9.517055778048E-02  6.603965241554E-02  2.506329133869E-01
C10 -9.517055778048E-02 -6.603965241554E-02 -2.506329133869E-01
C11  1.177704313967E-01  1.767583922454E-01  1.878498925470E-01
C12 -1.177704313967E-01 -1.767583922454E-01 -1.878498925470E-01
C13  5.998937407338E-02  9.188879631062E-02  9.390226510608E-02
C14 -5.998937407338E-02 -9.188879631062E-02 -9.390226510608E-02
C15  8.314059986579E-02  2.019826237923E-01  3.012935005382E-02
C16 -8.314059986579E-02 -2.019826237923E-01 -3.012935005382E-02
C17 -2.501498045592E-02 -1.171544856141E-01  6.287474949291E-02
C18  2.501498045592E-02  1.171544856141E-01 -6.287474949291E-02
C19 -4.723594704821E-02 -2.279467091743E-01  1.276587058408E-01
C20  4.723594704821E-02  2.279467091743E-01 -1.276587058408E-01
C21  1.015032930077E-02 -1.427531635231E-01  2.196079858054E-01
C22 -1.015032930077E-02  1.427531635231E-01 -2.196079858054E-01
H23  1.741333307794E-01  1.051964916824E-01  4.784411589476E-01
H24 -1.741333307794E-01 -1.051964916824E-01 -4.784411589476E-01
H25 -7.449848969796E-02 -4.109720105246E-01  2.626098528316E-01
H26  7.449848969796E-02  4.109720105246E-01 -2.626098528316E-01
H27  2.823463708356E-02 -2.533557137445E-01  4.251019256616E-01
H28 -2.823463708356E-02  2.533557137445E-01 -4.251019256616E-01
H29  2.154100940247E-01  3.075818044650E-01  3.689203250282E-01
H30 -2.154100940247E-01 -3.075818044650E-01 -3.689203250282E-01
H31  1.809405446184E-01  3.331920825335E-01  2.110482259956E-01
H32 -1.809405446184E-01 -3.331920825335E-01 -2.110482259956E-01
H33  1.463755683546E-01  3.583774925144E-01  5.324709678713E-02
H34 -1.463755683546E-01 -3.583774925144E-01 -5.324709678713E-02
H35 -1.108067237820E-01 -3.840459198543E-01  1.044492215721E-01
H36  1.108067237820E-01  3.840459198543E-01 -1.044492215721E-01
C37 -4.368634330701E-01 -4.293392061975E-01  3.995874541349E-01
C38  4.368634330701E-01  4.293392061975E-01 -3.995874541349E-01
C39 -4.947734479893E-01 -3.221835505680E-01  3.273853746219E-01
C40  4.947734479893E-01  3.221835505680E-01 -3.273853746219E-01
C41 -4.802375872905E-01 -4.157628930245E-01  2.415495808460E-01
C42  4.802375872905E-01  4.157628930245E-01 -2.415495808460E-01
C43  4.640887173529E-01 -3.092035268450E-01  1.673155933794E-01
C44 -4.640887173529E-01  3.092035268450E-01 -1.673155933794E-01
C45  4.803451896414E-01 -4.014556199442E-01  8.322216837273E-02
C46 -4.803451896414E-01  4.014556199442E-01 -8.322216837273E-02
C47  4.254044997257E-01 -2.941245712852E-01  8.115618158784E-03
C48 -4.254044997257E-01  2.941245712852E-01 -8.115618158784E-03
C49 -4.428189723980E-01  3.859124460296E-01  7.482545258814E-02
C50  4.428189723980E-01 -3.859124460296E-01 -7.482545258814E-02
C51 -3.867811825348E-01  2.791249495434E-01  1.511364327859E-01
C52  3.867811825348E-01 -2.791249495434E-01 -1.511364327859E-01
C53 -4.034156580050E-01  3.717768747769E-01  2.332050146747E-01
C54  4.034156580050E-01 -3.717768747769E-01 -2.332050146747E-01
C55 -3.448565955401E-01  2.655647812869E-01  3.113227311274E-01
C56  3.448565955401E-01 -2.655647812869E-01 -3.113227311274E-01
C57 -3.604598128025E-01  3.617087129613E-01  3.914713346762E-01
C58  3.604598128025E-01 -3.617087129613E-01 -3.914713346762E-01
H59 -4.466412512939E-01 -3.555245855098E-01  4.644856757459E-01
H60  4.466412512939E-01  3.555245855098E-01 -4.644856757459E-01
H61  4.477612304657E-01 -1.633722504569E-01  3.336459608067E-01
H62 -4.477612304657E-01  1.633722504569E-01 -3.336459608067E-01
H63  4.061849159261E-01 -1.506187503795E-01  1.735240021895E-01
H64 -4.061849159261E-01  1.506187503795E-01 -1.735240021895E-01
H65  3.671564196762E-01 -1.357538585606E-01  1.428970638721E-02
H66 -3.671564196762E-01  1.357538585606E-01 -1.428970638721E-02
H67 -3.286558704193E-01  1.206543492154E-01  1.450111925420E-01
H68  3.286558704193E-01 -1.206543492154E-01 -1.450111925420E-01
H69 -2.869152390640E-01  1.070971975148E-01  3.051295304014E-01
H70  2.869152390640E-01 -1.070971975148E-01 -3.051295304014E-01
H71 -3.145538909129E-01  2.807432634361E-01  4.503116217085E-01
H72  3.145538909129E-01 -2.807432634361E-01 -4.503116217085E-01


#===END

data_OPT_STEP_19

_symmetry_space_group_name_H-M 'P 1'
_cell_length_a      8.26370147
_cell_length_b      6.30483294
_cell_length_c     15.92318964
_cell_angle_alpha  100.079945
_cell_angle_beta  110.618797
_cell_angle_gamma   86.629585

loop_
_atom_site_label
_atom_site_fract_x
_atom_site_fract_y
_atom_site_fract_z
C1  1.285502056336E-01  3.923268734924E-02  4.061877551129E-01
C2 -1.285502056336E-01 -3.923268734924E-02 -4.061877551129E-01
C3 -1.135081796493E-02 -2.545758316831E-01  2.860760248582E-01
C4  1.135081796493E-02  2.545758316831E-01 -2.860760248582E-01
C5  4.502396142520E-02 -1.664788700538E-01  3.758483656815E-01
C6 -4.502396142520E-02  1.664788700538E-01 -3.758483656815E-01
C7  1.522505349952E-01  1.511827948398E-01  3.457190413174E-01
C8 -1.522505349952E-01 -1.511827948398E-01 -3.457190413174E-01
C9  9.488676927817E-02  6.602067343070E-02  2.504311324123E-01
C10 -9.488676927817E-02 -6.602067343070E-02 -2.504311324123E-01
C11  1.178893092433E-01  1.763548838744E-01  1.875574432335E-01
C12 -1.178893092433E-01 -1.763548838744E-01 -1.875574432335E-01
C13  6.026287054896E-02  9.153334226098E-02  9.377616145155E-02
C14 -6.026287054896E-02 -9.153334226098E-02 -9.377616145155E-02
C15  8.253623942116E-02  2.021915085057E-01  2.980340583471E-02
C16 -8.253623942116E-02 -2.021915085057E-01 -2.980340583471E-02
C17 -2.447618219124E-02 -1.174827726901E-01  6.303841578406E-02
C18  2.447618219124E-02  1.174827726901E-01 -6.303841578406E-02
C19 -4.665858625974E-02 -2.281936825945E-01  1.279504497072E-01
C20  4.665858625974E-02  2.281936825945E-01 -1.279504497072E-01
C21  1.036317517131E-02 -1.428723494396E-01  2.197403999523E-01
C22 -1.036317517131E-02  1.428723494396E-01 -2.197403999523E-01
H23  1.736665555602E-01  1.054649552450E-01  4.781102216670E-01
H24 -1.736665555602E-01 -1.054649552450E-01 -4.781102216670E-01
H25 -7.381455945967E-02 -4.111088143549E-01  2.631346926862E-01
H26  7.381455945967E-02  4.111088143549E-01 -2.631346926862E-01
H27  2.800832417057E-02 -2.531271796328E-01  4.252638929750E-01
H28 -2.800832417057E-02  2.531271796328E-01 -4.252638929750E-01
H29  2.144077881828E-01  3.076903588244E-01  3.682612731221E-01
H30 -2.144077881828E-01 -3.076903588244E-01 -3.682612731221E-01
H31  1.812326844586E-01  3.325311839182E-01  2.105634941293E-01
H32 -1.812326844586E-01 -3.325311839182E-01 -2.105634941293E-01
H33  1.453016716498E-01  3.587283328409E-01  5.268769403561E-02
H34 -1.453016716498E-01 -3.587283328409E-01 -5.268769403561E-02
H35 -1.103179764554E-01 -3.841430479109E-01  1.049374861595E-01
H36  1.103179764554E-01  3.841430479109E-01 -1.049374861595E-01
C37 -4.384950788664E-01 -4.294352339750E-01  3.993077207427E-01
C38  4.384950788664E-01  4.294352339750E-01 -3.993077207427E-01
C39 -4.958613456665E-01 -3.223601308110E-01  3.271695900744E-01
C40  4.958613456665E-01  3.223601308110E-01 -3.271695900744E-01
C41 -4.812793713606E-01 -4.159062557265E-01  2.413593024514E-01
C42  4.812793713606E-01  4.159062557265E-01 -2.413593024514E-01
C43  4.634581330737E-01 -3.095147938040E-01  1.671486478980E-01
C44 -4.634581330737E-01  3.095147938040E-01 -1.671486478980E-01
C45  4.799162528516E-01 -4.016962172203E-01  8.311853811528E-02
C46 -4.799162528516E-01  4.016962172203E-01 -8.311853811528E-02
C47  4.257575290719E-01 -2.943907693943E-01  8.102914357022E-03
C48 -4.257575290719E-01  2.943907693943E-01 -8.102914357022E-03
C49 -4.436416923402E-01  3.859354688338E-01  7.473568660948E-02
C50  4.436416923402E-01 -3.859354688338E-01 -7.473568660948E-02
C51 -3.883719048592E-01  2.791573748583E-01  1.509285226578E-01
C52  3.883719048592E-01 -2.791573748583E-01 -1.509285226578E-01
C53 -4.050139803804E-01  3.717752021179E-01  2.329876799967E-01
C54  4.050139803804E-01 -3.717752021179E-01 -2.329876799967E-01
C55 -3.468599100353E-01  2.657523209172E-01  3.110527677094E-01
C56  3.468599100353E-01 -2.657523209172E-01 -3.110527677094E-01
C57 -3.629396395552E-01  3.615729786293E-01  3.911065447620E-01
C58  3.629396395552E-01 -3.615729786293E-01 -3.911065447620E-01
H59 -4.492159808314E-01 -3.560852059658E-01  4.639762255723E-01
H60  4.492159808314E-01  3.560852059658E-01 -4.639762255723E-01
H61  4.473666450839E-01 -1.635075394090E-01  3.335189085660E-01
H62 -4.473666450839E-01  1.635075394090E-01 -3.335189085660E-01
H63  4.069978396088E-01 -1.504991117858E-01  1.735840402490E-01
H64 -4.069978396088E-01  1.504991117858E-01 -1.735840402490E-01
H65  3.685398051833E-01 -1.357644906029E-01  1.441197908427E-02
H66 -3.685398051833E-01  1.357644906029E-01 -1.441197908427E-02
H67 -3.307931775373E-01  1.206932032429E-01  1.447628848768E-01
H68  3.307931775373E-01 -1.206932032429E-01 -1.447628848768E-01
H69 -2.886396379114E-01  1.077479627535E-01  3.049728990618E-01
H70  2.886396379114E-01 -1.077479627535E-01 -3.049728990618E-01
H71 -3.175815390497E-01  2.804807570556E-01  4.498357490901E-01
H72  3.175815390497E-01 -2.804807570556E-01 -4.498357490901E-01


#===END

data_OPT_STEP_20

_symmetry_space_group_name_H-M 'P 1'
_cell_length_a      8.24462064
_cell_length_b      6.29465631
_cell_length_c     15.92100732
_cell_angle_alpha  100.057509
_cell_angle_beta  110.413722
_cell_angle_gamma   86.678154

loop_
_atom_site_label
_atom_site_fract_x
_atom_site_fract_y
_atom_site_fract_z
C1  1.264195852790E-01  3.929825735852E-02  4.057550142226E-01
C2 -1.264195852790E-01 -3.929825735852E-02 -4.057550142226E-01
C3 -1.323271205877E-02 -2.549201123077E-01  2.858381170291E-01
C4  1.323271205877E-02  2.549201123077E-01 -2.858381170291E-01
C5  4.369779274910E-02 -1.673687137785E-01  3.755498480294E-01
C6 -4.369779274910E-02  1.673687137785E-01 -3.755498480294E-01
C7  1.501054359659E-01  1.516609193698E-01  3.452752876900E-01
C8 -1.501054359659E-01 -1.516609193698E-01 -3.452752876900E-01
C9  9.318670076995E-02  6.631658979323E-02  2.501195720555E-01
C10 -9.318670076995E-02 -6.631658979323E-02 -2.501195720555E-01
C11  1.170618078070E-01  1.765893688622E-01  1.873298938285E-01
C12 -1.170618078070E-01 -1.765893688622E-01 -1.873298938285E-01
C13  6.000796476692E-02  9.154806853999E-02  9.366750146104E-02
C14 -6.000796476692E-02 -9.154806853999E-02 -9.366750146104E-02
C15  8.223756490039E-02  2.028023575769E-01  2.970914152860E-02
C16 -8.223756490039E-02 -2.028023575769E-01 -2.970914152860E-02
C17 -2.500489617408E-02 -1.176920537092E-01  6.301601816080E-02
C18  2.500489617408E-02  1.176920537092E-01 -6.301601816080E-02
C19 -4.763267422635E-02 -2.286088258610E-01  1.278689696806E-01
C20  4.763267422635E-02  2.286088258610E-01 -1.278689696806E-01
C21  9.136068293283E-03 -1.432295111155E-01  2.195576927311E-01
C22 -9.136068293283E-03  1.432295111155E-01 -2.195576927311E-01
H23  1.706301342234E-01  1.060974002096E-01  4.775420533069E-01
H24 -1.706301342234E-01 -1.060974002096E-01 -4.775420533069E-01
H25 -7.714668072187E-02 -4.108320766883E-01  2.628595554248E-01
H26  7.714668072187E-02  4.108320766883E-01 -2.628595554248E-01
H27  2.649850760399E-02 -2.543892245212E-01  4.249035312188E-01
H28 -2.649850760399E-02  2.543892245212E-01 -4.249035312188E-01
H29  2.122565373126E-01  3.084940105905E-01  3.677702425081E-01
H30 -2.122565373126E-01 -3.084940105905E-01 -3.677702425081E-01
H31  1.808333225445E-01  3.327591027945E-01  2.103069041695E-01
H32 -1.808333225445E-01 -3.327591027945E-01 -2.103069041695E-01
H33  1.450046873957E-01  3.596175727172E-01  5.253469047150E-02
H34 -1.450046873957E-01 -3.596175727172E-01 -5.253469047150E-02
H35 -1.112657103360E-01 -3.848904252801E-01  1.049143394343E-01
H36  1.112657103360E-01  3.848904252801E-01 -1.049143394343E-01
C37 -4.398697506752E-01 -4.296776408100E-01  3.989991330023E-01
C38  4.398697506752E-01  4.296776408100E-01 -3.989991330023E-01
C39 -4.973519270203E-01 -3.225375860061E-01  3.269084429085E-01
C40  4.973519270203E-01  3.225375860061E-01 -3.269084429085E-01
C41 -4.820999853889E-01 -4.159377931001E-01  2.411930103537E-01
C42  4.820999853889E-01  4.159377931001E-01 -2.411930103537E-01
C43  4.622006279150E-01 -3.097094290361E-01  1.669609249408E-01
C44 -4.622006279150E-01  3.097094290361E-01 -1.669609249408E-01
C45  4.797388903183E-01 -4.015055714215E-01  8.311639255933E-02
C46 -4.797388903183E-01  4.015055714215E-01 -8.311639255933E-02
C47  4.248383726054E-01 -2.945557696441E-01  8.019134674674E-03
C48 -4.248383726054E-01  2.945557696441E-01 -8.019134674674E-03
C49 -4.430498891201E-01  3.862062444617E-01  7.478502272111E-02
C50  4.430498891201E-01 -3.862062444617E-01 -7.478502272111E-02
C51 -3.880129835580E-01  2.791973655539E-01  1.508647785897E-01
C52  3.880129835580E-01 -2.791973655539E-01 -1.508647785897E-01
C53 -4.049464243836E-01  3.718908486701E-01  2.328927082822E-01
C54  4.049464243836E-01 -3.718908486701E-01 -2.328927082822E-01
C55 -3.471131091597E-01  2.655612353842E-01  3.108184483986E-01
C56  3.471131091597E-01 -2.655612353842E-01 -3.108184483986E-01
C57 -3.640813738493E-01  3.611180639492E-01  3.907436908773E-01
C58  3.640813738493E-01 -3.611180639492E-01 -3.907436908773E-01
H59 -4.511613499039E-01 -3.564772210890E-01  4.635316028115E-01
H60  4.511613499039E-01  3.564772210890E-01 -4.635316028115E-01
H61  4.447264492996E-01 -1.640241849306E-01  3.331406013001E-01
H62 -4.447264492996E-01  1.640241849306E-01 -3.331406013001E-01
H63  4.045632226587E-01 -1.510317329166E-01  1.732573220529E-01
H64 -4.045632226587E-01  1.510317329166E-01 -1.732573220529E-01
H65  3.670862152878E-01 -1.359523082761E-01  1.429055517570E-02
H66 -3.670862152878E-01  1.359523082761E-01 -1.429055517570E-02
H67 -3.308270603352E-01  1.202284369030E-01  1.445554168270E-01
H68  3.308270603352E-01 -1.202284369030E-01 -1.445554168270E-01
H69 -2.886674757683E-01  1.074130311496E-01  3.047154290456E-01
H70  2.886674757683E-01 -1.074130311496E-01 -3.047154290456E-01
H71 -3.189900122397E-01  2.797056146410E-01  4.493454797301E-01
H72  3.189900122397E-01 -2.797056146410E-01 -4.493454797301E-01


#===END

data_OPT_STEP_21

_symmetry_space_group_name_H-M 'P 1'
_cell_length_a      8.25984351
_cell_length_b      6.29744095
_cell_length_c     15.92559622
_cell_angle_alpha  100.069762
_cell_angle_beta  110.285943
_cell_angle_gamma   86.749855

loop_
_atom_site_label
_atom_site_fract_x
_atom_site_fract_y
_atom_site_fract_z
C1  1.281414335587E-01  3.767913396314E-02  4.055694994282E-01
C2 -1.281414335587E-01 -3.767913396314E-02 -4.055694994282E-01
C3 -1.189057137623E-02 -2.559280272156E-01  2.857966632053E-01
C4  1.189057137623E-02  2.559280272156E-01 -2.857966632053E-01
C5  4.587478935193E-02 -1.691387677079E-01  3.754573483503E-01
C6 -4.587478935193E-02  1.691387677079E-01 -3.754573483503E-01
C7  1.502888834466E-01  1.511262585749E-01  3.450612553010E-01
C8 -1.502888834466E-01 -1.511262585749E-01 -3.450612553010E-01
C9  9.305403693716E-02  6.618122234096E-02  2.499630521799E-01
C10 -9.305403693716E-02 -6.618122234096E-02 -2.499630521799E-01
C11  1.164825331087E-01  1.767957369617E-01  1.871564979965E-01
C12 -1.164825331087E-01 -1.767957369617E-01 -1.871564979965E-01
C13  5.969904782692E-02  9.172934691481E-02  9.358342315392E-02
C14 -5.969904782692E-02 -9.172934691481E-02 -9.358342315392E-02
C15  8.267784555662E-02  2.023514379970E-01  2.967957552354E-02
C16 -8.267784555662E-02 -2.023514379970E-01 -2.967957552354E-02
C17 -2.581382969450E-02 -1.171305846540E-01  6.294545382831E-02
C18  2.581382969450E-02  1.171305846540E-01 -6.294545382831E-02
C19 -4.814632943166E-02 -2.282041300343E-01  1.278235790855E-01
C20  4.814632943166E-02  2.282041300343E-01 -1.278235790855E-01
C21  9.181345146631E-03 -1.433266532602E-01  2.194416125198E-01
C22 -9.181345146631E-03  1.433266532602E-01 -2.194416125198E-01
H23  1.720557022834E-01  1.045793979521E-01  4.772829325186E-01
H24 -1.720557022834E-01 -1.045793979521E-01 -4.772829325186E-01
H25 -7.501556138058E-02 -4.122205004905E-01  2.629188760847E-01
H26  7.501556138058E-02  4.122205004905E-01 -2.629188760847E-01
H27  2.793397583902E-02 -2.556668766716E-01  4.247428200194E-01
H28 -2.793397583902E-02  2.556668766716E-01 -4.247428200194E-01
H29  2.106875160288E-01  3.093044969544E-01  3.674971377306E-01
H30 -2.106875160288E-01 -3.093044969544E-01 -3.674971377306E-01
H31  1.800359804850E-01  3.329964232693E-01  2.100736592886E-01
H32 -1.800359804850E-01 -3.329964232693E-01 -2.100736592886E-01
H33  1.467217506138E-01  3.581517033301E-01  5.254957321927E-02
H34 -1.467217506138E-01 -3.581517033301E-01 -5.254957321927E-02
H35 -1.108246110347E-01 -3.849571284246E-01  1.049945830949E-01
H36  1.108246110347E-01  3.849571284246E-01 -1.049945830949E-01
C37 -4.427070717355E-01 -4.305704882568E-01  3.983333103434E-01
C38  4.427070717355E-01  4.305704882568E-01 -3.983333103434E-01
C39 -4.988174952484E-01 -3.229481675546E-01  3.265212694331E-01
C40  4.988174952484E-01  3.229481675546E-01 -3.265212694331E-01
C41 -4.829414406709E-01 -4.160281980191E-01  2.409460650331E-01
C42  4.829414406709E-01  4.160281980191E-01 -2.409460650331E-01
C43  4.623444178117E-01 -3.095187821467E-01  1.669390822513E-01
C44 -4.623444178117E-01  3.095187821467E-01 -1.669390822513E-01
C45  4.799395379845E-01 -4.013487109582E-01  8.313568059790E-02
C46 -4.799395379845E-01  4.013487109582E-01 -8.313568059790E-02
C47  4.252024475814E-01 -2.946263015283E-01  8.109490303033E-03
C48 -4.252024475814E-01  2.946263015283E-01 -8.109490303033E-03
C49 -4.433629913967E-01  3.863501899376E-01  7.468977088841E-02
C50  4.433629913967E-01 -3.863501899376E-01 -7.468977088841E-02
C51 -3.889176562130E-01  2.793517022595E-01  1.505988778910E-01
C52  3.889176562130E-01 -2.793517022595E-01 -1.505988778910E-01
C53 -4.061072703994E-01  3.718901834408E-01  2.325737479540E-01
C54  4.061072703994E-01 -3.718901834408E-01 -2.325737479540E-01
C55 -3.496788334712E-01  2.651960725038E-01  3.101846025131E-01
C56  3.496788334712E-01 -2.651960725038E-01 -3.101846025131E-01
C57 -3.669637493480E-01  3.605256709779E-01  3.900493599944E-01
C58  3.669637493480E-01 -3.605256709779E-01 -3.900493599944E-01
H59 -4.540331075020E-01 -3.573686535972E-01  4.628572585953E-01
H60  4.540331075020E-01  3.573686535972E-01 -4.628572585953E-01
H61  4.441033503997E-01 -1.642983048581E-01  3.329430947118E-01
H62 -4.441033503997E-01  1.642983048581E-01 -3.329430947118E-01
H63  4.049956100559E-01 -1.509200514982E-01  1.733197582122E-01
H64 -4.049956100559E-01  1.509200514982E-01 -1.733197582122E-01
H65  3.678233107467E-01 -1.360593701244E-01  1.446385589817E-02
H66 -3.678233107467E-01  1.360593701244E-01 -1.446385589817E-02
H67 -3.324048931048E-01  1.202368304352E-01  1.441682466135E-01
H68  3.324048931048E-01 -1.202368304352E-01 -1.441682466135E-01
H69 -2.923880295179E-01  1.066479449648E-01  3.038914573851E-01
H70  2.923880295179E-01 -1.066479449648E-01 -3.038914573851E-01
H71 -3.224849863113E-01  2.789048472815E-01  4.484914092857E-01
H72  3.224849863113E-01 -2.789048472815E-01 -4.484914092857E-01


#===END

data_OPT_STEP_22

_symmetry_space_group_name_H-M 'P 1'
_cell_length_a      8.26024164
_cell_length_b      6.29304236
_cell_length_c     15.92492477
_cell_angle_alpha  100.052147
_cell_angle_beta  110.256809
_cell_angle_gamma   86.768088

loop_
_atom_site_label
_atom_site_fract_x
_atom_site_fract_y
_atom_site_fract_z
C1  1.276098527336E-01  3.808064963772E-02  4.055302233882E-01
C2 -1.276098527336E-01 -3.808064963772E-02 -4.055302233882E-01
C3 -1.231890813074E-02 -2.557641068065E-01  2.858262556218E-01
C4  1.231890813074E-02  2.557641068065E-01 -2.858262556218E-01
C5  4.541847265635E-02 -1.689349575332E-01  3.754573941348E-01
C6 -4.541847265635E-02  1.689349575332E-01 -3.754573941348E-01
C7  1.502248294823E-01  1.513462859874E-01  3.450420043063E-01
C8 -1.502248294823E-01 -1.513462859874E-01 -3.450420043063E-01
C9  9.327656861988E-02  6.614872171625E-02  2.499658216682E-01
C10 -9.327656861988E-02 -6.614872171625E-02 -2.499658216682E-01
C11  1.164720824927E-01  1.769616913217E-01  1.871027732546E-01
C12 -1.164720824927E-01 -1.769616913217E-01 -1.871027732546E-01
C13  5.943638563523E-02  9.196531680506E-02  9.354502015467E-02
C14 -5.943638563523E-02 -9.196531680506E-02 -9.354502015467E-02
C15  8.247608392568E-02  2.026091763451E-01  2.960904783762E-02
C16 -8.247608392568E-02 -2.026091763451E-01 -2.960904783762E-02
C17 -2.562031594107E-02 -1.172733582491E-01  6.298432966972E-02
C18  2.562031594107E-02  1.172733582491E-01 -6.298432966972E-02
C19 -4.809625741591E-02 -2.283385875515E-01  1.278856499439E-01
C20  4.809625741591E-02  2.283385875515E-01 -1.278856499439E-01
C21  9.116103168078E-03 -1.433308611330E-01  2.194722925640E-01
C22 -9.116103168077E-03  1.433308611330E-01 -2.194722925640E-01
H23  1.717054298398E-01  1.048731214302E-01  4.772466182393E-01
H24 -1.717054298398E-01 -1.048731214302E-01 -4.772466182393E-01
H25 -7.530202220598E-02 -4.122364128953E-01  2.630053227240E-01
H26  7.530202220598E-02  4.122364128953E-01 -2.630053227240E-01
H27  2.768926210366E-02 -2.557391359499E-01  4.247619671481E-01
H28 -2.768926210366E-02  2.557391359499E-01 -4.247619671481E-01
H29  2.105774714217E-01  3.097136974379E-01  3.674513449753E-01
H30 -2.105774714217E-01 -3.097136974379E-01 -3.674513449753E-01
H31  1.799489454385E-01  3.333013254213E-01  2.099546532557E-01
H32 -1.799489454385E-01 -3.333013254213E-01 -2.099546532557E-01
H33  1.461715161854E-01  3.587514126980E-01  5.241628582584E-02
H34 -1.461715161854E-01 -3.587514126980E-01 -5.241628582584E-02
H35 -1.109269683057E-01 -3.850599035158E-01  1.050932294023E-01
H36  1.109269683057E-01  3.850599035158E-01 -1.050932294023E-01
C37 -4.429502136914E-01 -4.307358038641E-01  3.982445802516E-01
C38  4.429502136914E-01  4.307358038641E-01 -3.982445802516E-01
C39 -4.988702820742E-01 -3.229531570548E-01  3.264625131141E-01
C40  4.988702820742E-01  3.229531570548E-01 -3.264625131141E-01
C41 -4.831078174884E-01 -4.161575277558E-01  2.408798110483E-01
C42  4.831078174884E-01  4.161575277558E-01 -2.408798110483E-01
C43  4.620185854701E-01 -3.096465480783E-01  1.668621863599E-01
C44 -4.620185854701E-01  3.096465480783E-01 -1.668621863599E-01
C45  4.794581536386E-01 -4.015891795037E-01  8.303494167152E-02
C46 -4.794581536386E-01  4.015891795037E-01 -8.303494167152E-02
C47  4.252476097067E-01 -2.944377802745E-01  8.126460239540E-03
C48 -4.252476097067E-01  2.944377802745E-01 -8.126460239540E-03
C49 -4.435192140970E-01  3.861093007294E-01  7.464331664520E-02
C50  4.435192140970E-01 -3.861093007294E-01 -7.464331664520E-02
C51 -3.888092882317E-01  2.791377631933E-01  1.505931086351E-01
C52  3.888092882317E-01 -2.791377631933E-01 -1.505931086351E-01
C53 -4.064282605764E-01  3.715118704559E-01  2.324826827474E-01
C54  4.064282605764E-01 -3.715118704559E-01 -2.324826827474E-01
C55 -3.497463896777E-01  2.648585390610E-01  3.101530466924E-01
C56  3.497463896777E-01 -2.648585390610E-01 -3.101530466924E-01
C57 -3.673203980124E-01  3.601281868516E-01  3.899637712725E-01
C58  3.673203980124E-01 -3.601281868516E-01 -3.899637712725E-01
H59 -4.543030801525E-01 -3.574202888495E-01  4.627915828408E-01
H60  4.543030801525E-01  3.574202888495E-01 -4.627915828408E-01
H61  4.444125533692E-01 -1.640464835269E-01  3.329327994111E-01
H62 -4.444125533692E-01  1.640464835269E-01 -3.329327994111E-01
H63  4.048352405633E-01 -1.508734728937E-01  1.732669776643E-01
H64 -4.048352405633E-01  1.508734728937E-01 -1.732669776643E-01
H65  3.680499743762E-01 -1.356818841526E-01  1.451742905166E-02
H66 -3.680499743762E-01  1.356818841526E-01 -1.451742905166E-02
H67 -3.314399293544E-01  1.204231517464E-01  1.443281188544E-01
H68  3.314399293544E-01 -1.204231517464E-01 -1.443281188544E-01
H69 -2.916134461032E-01  1.067209964077E-01  3.040278105026E-01
H70  2.916134461032E-01 -1.067209964077E-01 -3.040278105026E-01
H71 -3.228311992561E-01  2.784862873792E-01  4.484241622724E-01
H72  3.228311992561E-01 -2.784862873792E-01 -4.484241622724E-01


#===END

data_OPT_STEP_23

_symmetry_space_group_name_H-M 'P 1'
_cell_length_a      8.26380348
_cell_length_b      6.29029684
_cell_length_c     15.92385819
_cell_angle_alpha  100.035926
_cell_angle_beta  110.234308
_cell_angle_gamma   86.798148

loop_
_atom_site_label
_atom_site_fract_x
_atom_site_fract_y
_atom_site_fract_z
C1  1.270588893556E-01  3.878382609471E-02  4.055520632421E-01
C2 -1.270588893556E-01 -3.878382609471E-02 -4.055520632421E-01
C3 -1.240539494849E-02 -2.556296095641E-01  2.859227222721E-01
C4  1.240539494849E-02  2.556296095641E-01 -2.859227222721E-01
C5  4.449961279570E-02 -1.680915328665E-01  3.755018983843E-01
C6 -4.449961279570E-02  1.680915328665E-01 -3.755018983843E-01
C7  1.502637930897E-01  1.516665141749E-01  3.450570102054E-01
C8 -1.502637930897E-01 -1.516665141749E-01 -3.450570102054E-01
C9  9.341799445792E-02  6.625251149502E-02  2.499880280153E-01
C10 -9.341799445792E-02 -6.625251149502E-02 -2.499880280153E-01
C11  1.165982106438E-01  1.770488075160E-01  1.870839263771E-01
C12 -1.165982106438E-01 -1.770488075160E-01 -1.870839263771E-01
C13  5.968079743943E-02  9.187054198646E-02  9.354632637183E-02
C14 -5.968079743943E-02 -9.187054198646E-02 -9.354632637183E-02
C15  8.280361912714E-02  2.025001765476E-01  2.958175287005E-02
C16 -8.280361912714E-02 -2.025001765476E-01 -2.958175287005E-02
C17 -2.531056035410E-02 -1.175010844994E-01  6.301473355330E-02
C18  2.531056035410E-02  1.175010844994E-01 -6.301473355330E-02
C19 -4.746435620225E-02 -2.288107314825E-01  1.279965717411E-01
C20  4.746435620225E-02  2.288107314825E-01 -1.279965717411E-01
C21  9.311394963768E-03 -1.433770156102E-01  2.195506748836E-01
C22 -9.311394963768E-03  1.433770156102E-01 -2.195506748836E-01
H23  1.714550914530E-01  1.054383799233E-01  4.772848465254E-01
H24 -1.714550914530E-01 -1.054383799233E-01 -4.772848465254E-01
H25 -7.512794170307E-02 -4.123401156519E-01  2.631698011024E-01
H26  7.512794170307E-02  4.123401156519E-01 -2.631698011024E-01
H27  2.733514266257E-02 -2.554375300147E-01  4.248396510613E-01
H28 -2.733514266257E-02  2.554375300147E-01 -4.248396510613E-01
H29  2.113407471932E-01  3.094671695651E-01  3.673543383555E-01
H30 -2.113407471932E-01 -3.094671695651E-01 -3.673543383555E-01
H31  1.797930677723E-01  3.336468604860E-01  2.098705211742E-01
H32 -1.797930677723E-01 -3.336468604860E-01 -2.098705211742E-01
H33  1.460443825795E-01  3.590400658319E-01  5.232720479946E-02
H34 -1.460443825795E-01 -3.590400658319E-01 -5.232720479946E-02
H35 -1.106796538036E-01 -3.853412115182E-01  1.052222081779E-01
H36  1.106796538036E-01  3.853412115182E-01 -1.052222081779E-01
C37 -4.428039825034E-01 -4.305208550569E-01  3.982853793446E-01
C38  4.428039825034E-01  4.305208550569E-01 -3.982853793446E-01
C39 -4.989471277419E-01 -3.229332817489E-01  3.264279113018E-01
C40  4.989471277419E-01  3.229332817489E-01 -3.264279113018E-01
C41 -4.831214250411E-01 -4.161539145372E-01  2.408688439145E-01
C42  4.831214250411E-01  4.161539145372E-01 -2.408688439145E-01
C43  4.616068691503E-01 -3.098974902134E-01  1.667664701469E-01
C44 -4.616068691503E-01  3.098974902134E-01 -1.667664701469E-01
C45  4.794860337470E-01 -4.015559362320E-01  8.302944983052E-02
C46 -4.794860337470E-01  4.015559362320E-01 -8.302944983052E-02
C47  4.250309739940E-01 -2.945146756753E-01  8.067897953468E-03
C48 -4.250309739940E-01  2.945146756753E-01 -8.067897953468E-03
C49 -4.435010864108E-01  3.860794962874E-01  7.465603157489E-02
C50  4.435010864108E-01 -3.860794962874E-01 -7.465603157489E-02
C51 -3.887308939935E-01  2.791313513625E-01  1.506439161507E-01
C52  3.887308939935E-01 -2.791313513625E-01 -1.506439161507E-01
C53 -4.063039440130E-01  3.715708285324E-01  2.325273857885E-01
C54  4.063039440130E-01 -3.715708285324E-01 -2.325273857885E-01
C55 -3.497318508020E-01  2.648678943946E-01  3.102231685960E-01
C56  3.497318508020E-01 -2.648678943946E-01 -3.102231685960E-01
C57 -3.674253352230E-01  3.601326404725E-01  3.900117344596E-01
C58  3.674253352230E-01 -3.601326404725E-01 -3.900117344596E-01
H59 -4.545148010732E-01 -3.571935064190E-01  4.627915323238E-01
H60  4.545148010732E-01  3.571935064190E-01 -4.627915323238E-01
H61  4.441469022961E-01 -1.640663625810E-01  3.328200598039E-01
H62 -4.441469022961E-01  1.640663625810E-01 -3.328200598039E-01
H63  4.044147025816E-01 -1.511016082632E-01  1.731467532864E-01
H64 -4.044147025816E-01  1.511016082632E-01 -1.731467532864E-01
H65  3.673808042241E-01 -1.359789071178E-01  1.435643823409E-02
H66 -3.673808042241E-01  1.359789071178E-01 -1.435643823409E-02
H67 -3.313188245584E-01  1.204178885704E-01  1.444035490459E-01
H68  3.313188245584E-01 -1.204178885704E-01 -1.444035490459E-01
H69 -2.920772158435E-01  1.064228148293E-01  3.040217475467E-01
H70  2.920772158435E-01 -1.064228148293E-01 -3.040217475467E-01
H71 -3.230773204642E-01  2.784500578436E-01  4.484830337425E-01
H72  3.230773204642E-01 -2.784500578436E-01 -4.484830337425E-01


#===END

data_OPT_STEP_24

_symmetry_space_group_name_H-M 'P 1'
_cell_length_a      8.26771412
_cell_length_b      6.28604136
_cell_length_c     15.92442495
_cell_angle_alpha  100.020239
_cell_angle_beta  110.206218
_cell_angle_gamma   86.825048

loop_
_atom_site_label
_atom_site_fract_x
_atom_site_fract_y
_atom_site_fract_z
C1  1.268622969599E-01  3.922976268360E-02  4.055189071742E-01
C2 -1.268622969599E-01 -3.922976268360E-02 -4.055189071742E-01
C3 -1.279099140603E-02 -2.552961404045E-01  2.859637669279E-01
C4  1.279099140603E-02  2.552961404045E-01 -2.859637669279E-01
C5  4.403938225325E-02 -1.675780443300E-01  3.755149136613E-01
C6 -4.403938225325E-02  1.675780443300E-01 -3.755149136613E-01
C7  1.500841990754E-01  1.521048528459E-01  3.449916194805E-01
C8 -1.500841990754E-01 -1.521048528459E-01 -3.449916194805E-01
C9  9.325960560997E-02  6.655115000541E-02  2.499475888397E-01
C10 -9.325960560997E-02 -6.655115000541E-02 -2.499475888397E-01
C11  1.166123102665E-01  1.772249494279E-01  1.870273996961E-01
C12 -1.166123102665E-01 -1.772249494279E-01 -1.870273996961E-01
C13  5.961799613857E-02  9.199554154464E-02  9.351629641729E-02
C14 -5.961799613857E-02 -9.199554154464E-02 -9.351629641729E-02
C15  8.245315391636E-02  2.028673046917E-01  2.950124385852E-02
C16 -8.245315391636E-02 -2.028673046917E-01 -2.950124385852E-02
C17 -2.525099295195E-02 -1.175659257634E-01  6.305355034128E-02
C18  2.525099295195E-02  1.175659257634E-01 -6.305355034128E-02
C19 -4.756160418550E-02 -2.287932683108E-01  1.280464414044E-01
C20  4.756160418550E-02  2.287932683108E-01 -1.280464414044E-01
C21  9.164297589373E-03 -1.432156167265E-01  2.195717563790E-01
C22 -9.164297589373E-03  1.432156167265E-01 -2.195717563790E-01
H23  1.711210129779E-01  1.060577395339E-01  4.772240007910E-01
H24 -1.711210129779E-01 -1.060577395339E-01 -4.772240007910E-01
H25 -7.558827073263E-02 -4.120659385448E-01  2.632570232964E-01
H26  7.558827073263E-02  4.120659385448E-01 -2.632570232964E-01
H27  2.678625763332E-02 -2.548371193469E-01  4.248791281868E-01
H28 -2.678625763332E-02  2.548371193469E-01 -4.248791281868E-01
H29  2.114814967265E-01  3.097281557033E-01  3.672285691608E-01
H30 -2.114814967265E-01 -3.097281557033E-01 -3.672285691608E-01
H31  1.800204502157E-01  3.337637844548E-01  2.097722470194E-01
H32 -1.800204502157E-01 -3.337637844548E-01 -2.097722470194E-01
H33  1.459367443551E-01  3.593378957296E-01  5.222339675415E-02
H34 -1.459367443551E-01 -3.593378957296E-01 -5.222339675415E-02
H35 -1.104685738285E-01 -3.856267068156E-01  1.053378280209E-01
H36  1.104685738285E-01  3.856267068156E-01 -1.053378280209E-01
C37 -4.429113244801E-01 -4.304682324754E-01  3.982692952368E-01
C38  4.429113244801E-01  4.304682324754E-01 -3.982692952368E-01
C39 -4.990302309064E-01 -3.228587756816E-01  3.264073516566E-01
C40  4.990302309064E-01  3.228587756816E-01 -3.264073516566E-01
C41 -4.830880625437E-01 -4.160586392009E-01  2.408765669868E-01
C42  4.830880625437E-01  4.160586392009E-01 -2.408765669868E-01
C43  4.617843056386E-01 -3.097068992548E-01  1.667930278476E-01
C44 -4.617843056386E-01  3.097068992548E-01 -1.667930278476E-01
C45  4.793610732355E-01 -4.015903840132E-01  8.299548416485E-02
C46 -4.793610732355E-01  4.015903840132E-01 -8.299548416485E-02
C47  4.249823300460E-01 -2.944885436576E-01  8.041930607060E-03
C48 -4.249823300460E-01  2.944885436576E-01 -8.041930607060E-03
C49 -4.434961146958E-01  3.860702353445E-01  7.466637892264E-02
C50  4.434961146958E-01 -3.860702353445E-01 -7.466637892264E-02
C51 -3.884788812140E-01  2.792202239577E-01  1.507137765435E-01
C52  3.884788812140E-01 -2.792202239577E-01 -1.507137765435E-01
C53 -4.062430881386E-01  3.716343053873E-01  2.325547457953E-01
C54  4.062430881386E-01 -3.716343053873E-01 -2.325547457953E-01
C55 -3.495867840803E-01  2.649473625854E-01  3.102854750926E-01
C56  3.495867840803E-01 -2.649473625854E-01 -3.102854750926E-01
C57 -3.672340897629E-01  3.603125276070E-01  3.900670813868E-01
C58  3.672340897629E-01 -3.603125276070E-01 -3.900670813868E-01
H59 -4.548307765163E-01 -3.571799031573E-01  4.627177424123E-01
H60  4.548307765163E-01  3.571799031573E-01 -4.627177424123E-01
H61  4.437823824800E-01 -1.640511799597E-01  3.327341643705E-01
H62 -4.437823824800E-01  1.640511799597E-01 -3.327341643705E-01
H63  4.042352563350E-01 -1.510351806270E-01  1.730884858134E-01
H64 -4.042352563350E-01  1.510351806270E-01 -1.730884858134E-01
H65  3.675079720438E-01 -1.358005163266E-01  1.435168489746E-02
H66 -3.675079720438E-01  1.358005163266E-01 -1.435168489746E-02
H67 -3.307494147918E-01  1.206319466246E-01  1.445387560133E-01
H68  3.307494147918E-01 -1.206319466246E-01 -1.445387560133E-01
H69 -2.916767572165E-01  1.065820823175E-01  3.041391430089E-01
H70  2.916767572165E-01 -1.065820823175E-01 -3.041391430089E-01
H71 -3.231818857956E-01  2.784364676459E-01  4.484873352553E-01
H72  3.231818857956E-01 -2.784364676459E-01 -4.484873352553E-01


#===END

data_OPT_STEP_25

_symmetry_space_group_name_H-M 'P 1'
_cell_length_a      8.27835671
_cell_length_b      6.27635700
_cell_length_c     15.92573467
_cell_angle_alpha   99.998191
_cell_angle_beta  110.146945
_cell_angle_gamma   86.856827

loop_
_atom_site_label
_atom_site_fract_x
_atom_site_fract_y
_atom_site_fract_z
C1  1.267342200007E-01  3.982801907773E-02  4.054429365408E-01
C2 -1.267342200007E-01 -3.982801907773E-02 -4.054429365408E-01
C3 -1.303752997216E-02 -2.550168408139E-01  2.860528166638E-01
C4  1.303752997216E-02  2.550168408139E-01 -2.860528166638E-01
C5  4.415752890883E-02 -1.673761431176E-01  3.755680703869E-01
C6 -4.415752890883E-02  1.673761431176E-01 -3.755680703869E-01
C7  1.499684002506E-01  1.527244936335E-01  3.448643041542E-01
C8 -1.499684002506E-01 -1.527244936335E-01 -3.448643041542E-01
C9  9.296977696319E-02  6.711919842349E-02  2.498659090988E-01
C10 -9.296977696319E-02 -6.711919842349E-02 -2.498659090988E-01
C11  1.161913067455E-01  1.779228129141E-01  1.868903863824E-01
C12 -1.161913067455E-01 -1.779228129141E-01 -1.868903863824E-01
C13  5.940772553113E-02  9.234697980146E-02  9.343733798807E-02
C14 -5.940772553113E-02 -9.234697980146E-02 -9.343733798807E-02
C15  8.234303524374E-02  2.031622434415E-01  2.937992978326E-02
C16 -8.234303524374E-02 -2.031622434415E-01 -2.937992978326E-02
C17 -2.542684093019E-02 -1.174816058684E-01  6.310490263929E-02
C18  2.542684093019E-02  1.174816058684E-01 -6.310490263929E-02
C19 -4.792030075866E-02 -2.285864196846E-01  1.281284801325E-01
C20  4.792030075866E-02  2.285864196846E-01 -1.281284801325E-01
C21  8.831306429921E-03 -1.428539527236E-01  2.195957259641E-01
C22 -8.831306429921E-03  1.428539527236E-01 -2.195957259641E-01
H23  1.712405992608E-01  1.066149489962E-01  4.771152987479E-01
H24 -1.712405992608E-01 -1.066149489962E-01 -4.771152987479E-01
H25 -7.620395113805E-02 -4.117457363440E-01  2.634019211007E-01
H26  7.620395113805E-02  4.117457363440E-01 -2.634019211007E-01
H27  2.664507224215E-02 -2.543533321221E-01  4.249859890268E-01
H28 -2.664507224215E-02  2.543533321221E-01 -4.249859890268E-01
H29  2.112688955560E-01  3.106415009311E-01  3.670532880991E-01
H30 -2.112688955560E-01 -3.106415009311E-01 -3.670532880991E-01
H31  1.792905085805E-01  3.348701766597E-01  2.095288433108E-01
H32 -1.792905085805E-01 -3.348701766597E-01 -2.095288433108E-01
H33  1.457506077634E-01  3.598595041905E-01  5.200731606654E-02
H34 -1.457506077634E-01 -3.598595041905E-01 -5.200731606654E-02
H35 -1.107869929856E-01 -3.856479973301E-01  1.055078449597E-01
H36  1.107869929856E-01  3.856479973301E-01 -1.055078449597E-01
C37 -4.434685288302E-01 -4.305422056699E-01  3.981423206380E-01
C38  4.434685288302E-01  4.305422056699E-01 -3.981423206380E-01
C39 -4.993512689826E-01 -3.227010095158E-01  3.263285159821E-01
C40  4.993512689826E-01  3.227010095158E-01 -3.263285159821E-01
C41 -4.835106236507E-01 -4.160826273362E-01  2.407836576263E-01
C42  4.835106236507E-01  4.160826273362E-01 -2.407836576263E-01
C43  4.614982899465E-01 -3.095871573269E-01  1.667167002369E-01
C44 -4.614982899465E-01  3.095871573269E-01 -1.667167002369E-01
C45  4.793152741625E-01 -4.014865604190E-01  8.297480989829E-02
C46 -4.793152741625E-01  4.014865604190E-01 -8.297480989829E-02
C47  4.249463058979E-01 -2.943371339383E-01  8.016415831907E-03
C48 -4.249463058979E-01  2.943371339383E-01 -8.016415831907E-03
C49 -4.433787595943E-01  3.861000421231E-01  7.469597810612E-02
C50  4.433787595943E-01 -3.861000421231E-01 -7.469597810612E-02
C51 -3.885800265577E-01  2.790776440599E-01  1.507037541375E-01
C52  3.885800265577E-01 -2.790776440599E-01 -1.507037541375E-01
C53 -4.064342086599E-01  3.715621968828E-01  2.325122279039E-01
C54  4.064342086599E-01 -3.715621968828E-01 -2.325122279039E-01
C55 -3.496619170463E-01  2.648223686653E-01  3.102635522332E-01
C56  3.496619170463E-01 -2.648223686653E-01 -3.102635522332E-01
C57 -3.677542359171E-01  3.600728630867E-01  3.899499158254E-01
C58  3.677542359171E-01 -3.600728630867E-01 -3.899499158254E-01
H59 -4.554926039538E-01 -3.572888674779E-01  4.625336224582E-01
H60  4.554926039538E-01  3.572888674779E-01 -4.625336224582E-01
H61  4.436770974070E-01 -1.636208904309E-01  3.326859260780E-01
H62 -4.436770974070E-01  1.636208904309E-01 -3.326859260780E-01
H63  4.040460185448E-01 -1.507126241655E-01  1.730163319603E-01
H64 -4.040460185448E-01  1.507126241655E-01 -1.730163319603E-01
H65  3.672756571294E-01 -1.355976841528E-01  1.427835878325E-02
H66 -3.672756571294E-01  1.355976841528E-01 -1.427835878325E-02
H67 -3.308310053115E-01  1.203435912640E-01  1.445359013849E-01
H68  3.308310053115E-01 -1.203435912640E-01 -1.445359013849E-01
H69 -2.911166178122E-01  1.066613348312E-01  3.042398303423E-01
H70  2.911166178122E-01 -1.066613348312E-01 -3.042398303423E-01
H71 -3.239976663878E-01  2.779320945423E-01  4.483032262190E-01
H72  3.239976663878E-01 -2.779320945423E-01 -4.483032262190E-01


#===END

data_OPT_STEP_26

_symmetry_space_group_name_H-M 'P 1'
_cell_length_a      8.29847039
_cell_length_b      6.25362311
_cell_length_c     15.92654850
_cell_angle_alpha   99.943580
_cell_angle_beta  110.047551
_cell_angle_gamma   86.919615

loop_
_atom_site_label
_atom_site_fract_x
_atom_site_fract_y
_atom_site_fract_z
C1  1.262448608892E-01  4.067298241155E-02  4.053175460300E-01
C2 -1.262448608892E-01 -4.067298241155E-02 -4.053175460300E-01
C3 -1.328502997294E-02 -2.552529983905E-01  2.862240751336E-01
C4  1.328502997294E-02  2.552529983905E-01 -2.862240751336E-01
C5  4.394608860494E-02 -1.673248313998E-01  3.756462060660E-01
C6 -4.394608860494E-02  1.673248313998E-01 -3.756462060660E-01
C7  1.495794975151E-01  1.537766809495E-01  3.446667842141E-01
C8 -1.495794975151E-01 -1.537766809495E-01 -3.446667842141E-01
C9  9.280469100563E-02  6.771852290277E-02  2.497661978495E-01
C10 -9.280469100563E-02 -6.771852290277E-02 -2.497661978495E-01
C11  1.163538184104E-01  1.785163255578E-01  1.867215466796E-01
C12 -1.163538184104E-01 -1.785163255578E-01 -1.867215466796E-01
C13  5.940115435673E-02  9.275406697489E-02  9.334677848215E-02
C14 -5.940115435673E-02 -9.275406697489E-02 -9.334677848215E-02
C15  8.230741118394E-02  2.037814714169E-01  2.919150123776E-02
C16 -8.230741118394E-02 -2.037814714169E-01 -2.919150123776E-02
C17 -2.559058796674E-02 -1.176235171573E-01  6.319714751844E-02
C18  2.559058796674E-02  1.176235171573E-01 -6.319714751844E-02
C19 -4.814780005025E-02 -2.288834965282E-01  1.283047768227E-01
C20  4.814780005025E-02  2.288834965282E-01 -1.283047768227E-01
C21  8.527655223367E-03 -1.427889705349E-01  2.196764740515E-01
C22 -8.527655223367E-03  1.427889705349E-01 -2.196764740515E-01
H23  1.706481628268E-01  1.077737204000E-01  4.769084244229E-01
H24 -1.706481628268E-01 -1.077737204000E-01 -4.769084244229E-01
H25 -7.629011575342E-02 -4.125475017627E-01  2.637289862660E-01
H26  7.629011575342E-02  4.125475017627E-01 -2.637289862660E-01
H27  2.638220909034E-02 -2.543124388197E-01  4.251622241075E-01
H28 -2.638220909034E-02  2.543124388197E-01 -4.251622241075E-01
H29  2.105308870916E-01  3.125339999565E-01  3.668124075372E-01
H30 -2.105308870916E-01 -3.125339999565E-01 -3.668124075372E-01
H31  1.800199753317E-01  3.355139030829E-01  2.092334241553E-01
H32 -1.800199753317E-01 -3.355139030829E-01 -2.092334241553E-01
H33  1.450566237190E-01  3.613807599761E-01  5.162134602667E-02
H34 -1.450566237190E-01 -3.613807599761E-01 -5.162134602667E-02
H35 -1.113607714384E-01 -3.861968240200E-01  1.058039488698E-01
H36  1.113607714384E-01  3.861968240200E-01 -1.058039488698E-01
C37 -4.443629642425E-01 -4.308365348007E-01  3.979077502437E-01
C38  4.443629642425E-01  4.308365348007E-01 -3.979077502437E-01
C39  4.999264712085E-01 -3.226012254498E-01  3.261261946603E-01
C40 -4.999264712085E-01  3.226012254498E-01 -3.261261946603E-01
C41 -4.835603364079E-01 -4.158338173095E-01  2.407261120458E-01
C42  4.835603364079E-01  4.158338173095E-01 -2.407261120458E-01
C43  4.612279782857E-01 -3.092059772504E-01  1.666115115840E-01
C44 -4.612279782857E-01  3.092059772504E-01 -1.666115115840E-01
C45  4.790447694839E-01 -4.013677324372E-01  8.289520522575E-02
C46 -4.790447694839E-01  4.013677324372E-01 -8.289520522575E-02
C47  4.246265081280E-01 -2.939941363228E-01  7.922518421650E-03
C48 -4.246265081280E-01  2.939941363228E-01 -7.922518421650E-03
C49 -4.431993415481E-01  3.859461922319E-01  7.473537029336E-02
C50  4.431993415481E-01 -3.859461922319E-01 -7.473537029336E-02
C51 -3.881931783587E-01  2.787454062563E-01  1.507826133593E-01
C52  3.881931783587E-01 -2.787454062563E-01 -1.507826133593E-01
C53 -4.064623318964E-01  3.712712208382E-01  2.324895606667E-01
C54  4.064623318964E-01 -3.712712208382E-01 -2.324895606667E-01
C55 -3.505409726483E-01  2.638154753319E-01  3.100788545581E-01
C56  3.505409726483E-01 -2.638154753319E-01 -3.100788545581E-01
C57 -3.688488774092E-01  3.591351883444E-01  3.896937566518E-01
C58  3.688488774092E-01 -3.591351883444E-01 -3.896937566518E-01
H59 -4.562551644526E-01 -3.574501579450E-01  4.622723173920E-01
H60  4.562551644526E-01  3.574501579450E-01 -4.622723173920E-01
H61  4.426381313260E-01 -1.632888950114E-01  3.324096087810E-01
H62 -4.426381313260E-01  1.632888950114E-01 -3.324096087810E-01
H63  4.036495877311E-01 -1.499948590983E-01  1.728539781551E-01
H64 -4.036495877311E-01  1.499948590983E-01 -1.728539781551E-01
H65  3.668176444578E-01 -1.349317634544E-01  1.412995145750E-02
H66 -3.668176444578E-01  1.349317634544E-01 -1.412995145750E-02
H67 -3.301203786297E-01  1.197985201892E-01  1.446926004132E-01
H68  3.301203786297E-01 -1.197985201892E-01 -1.446926004132E-01
H69 -2.928488326683E-01  1.047740468012E-01  3.039202414428E-01
H70  2.928488326683E-01 -1.047740468012E-01 -3.039202414428E-01
H71 -3.251077665475E-01  2.767098007888E-01  4.480239094128E-01
H72  3.251077665475E-01 -2.767098007888E-01 -4.480239094128E-01


#===END

data_OPT_STEP_27

_symmetry_space_group_name_H-M 'P 1'
_cell_length_a      8.31599658
_cell_length_b      6.23096010
_cell_length_c     15.92317515
_cell_angle_alpha   99.879528
_cell_angle_beta  109.909104
_cell_angle_gamma   87.002250

loop_
_atom_site_label
_atom_site_fract_x
_atom_site_fract_y
_atom_site_fract_z
C1  1.258895101674E-01  4.120663286421E-02  4.052500901233E-01
C2 -1.258895101674E-01 -4.120663286421E-02 -4.052500901233E-01
C3 -1.369493990215E-02 -2.555588389605E-01  2.864525721809E-01
C4  1.369493990215E-02  2.555588389605E-01 -2.864525721809E-01
C5  4.312047707501E-02 -1.670831941980E-01  3.757520502148E-01
C6 -4.312047707501E-02  1.670831941980E-01 -3.757520502148E-01
C7  1.494992151872E-01  1.545199427510E-01  3.445290498394E-01
C8 -1.494992151872E-01 -1.545199427510E-01 -3.445290498394E-01
C9  9.286203653513E-02  6.809703636153E-02  2.497184356797E-01
C10 -9.286203653513E-02 -6.809703636153E-02 -2.497184356797E-01
C11  1.164851934091E-01  1.791100457509E-01  1.865568581464E-01
C12 -1.164851934091E-01 -1.791100457509E-01 -1.865568581464E-01
C13  5.956073346285E-02  9.303950796774E-02  9.327385608354E-02
C14 -5.956073346285E-02 -9.303950796774E-02 -9.327385608354E-02
C15  8.285621055138E-02  2.040161999043E-01  2.900737146921E-02
C16 -8.285621055138E-02 -2.040161999043E-01 -2.900737146921E-02
C17 -2.565089206512E-02 -1.178704695610E-01  6.330620667076E-02
C18  2.565089206512E-02  1.178704695610E-01 -6.330620667076E-02
C19 -4.811053715471E-02 -2.294645791885E-01  1.285609998506E-01
C20  4.811053715471E-02  2.294645791885E-01 -1.285609998506E-01
C21  8.460591628934E-03 -1.429884151697E-01  2.198304015183E-01
C22 -8.460591628934E-03  1.429884151697E-01 -2.198304015183E-01
H23  1.695462336291E-01  1.090510747342E-01  4.767312092323E-01
H24 -1.695462336291E-01 -1.090510747342E-01 -4.767312092323E-01
H25 -7.636636747643E-02 -4.135300720239E-01  2.641431045209E-01
H26  7.636636747643E-02  4.135300720239E-01 -2.641431045209E-01
H27  2.560231258247E-02 -2.544142098108E-01  4.253447480736E-01
H28 -2.560231258247E-02  2.544142098108E-01 -4.253447480736E-01
H29  2.106012092904E-01  3.137191181763E-01  3.665809705547E-01
H30 -2.106012092904E-01 -3.137191181763E-01 -3.665809705547E-01
H31  1.801890531241E-01  3.365408510244E-01  2.088975888056E-01
H32 -1.801890531241E-01 -3.365408510244E-01 -2.088975888056E-01
H33  1.462806491897E-01  3.616207411200E-01  5.131538649570E-02
H34 -1.462806491897E-01 -3.616207411200E-01 -5.131538649570E-02
H35 -1.113030430386E-01 -3.872413442013E-01  1.062372685830E-01
H36  1.113030430386E-01  3.872413442013E-01 -1.062372685830E-01
C37 -4.442924673324E-01 -4.307290449509E-01  3.978850179520E-01
C38  4.442924673324E-01  4.307290449509E-01 -3.978850179520E-01
C39  4.998366387784E-01 -3.223001412906E-01  3.260728512218E-01
C40 -4.998366387784E-01  3.223001412906E-01 -3.260728512218E-01
C41 -4.839333915103E-01 -4.158992692463E-01  2.406263504062E-01
C42  4.839333915103E-01  4.158992692463E-01 -2.406263504062E-01
C43  4.606379056129E-01 -3.091094867496E-01  1.664819290222E-01
C44 -4.606379056129E-01  3.091094867496E-01 -1.664819290222E-01
C45  4.786547701279E-01 -4.013367730051E-01  8.281338994616E-02
C46 -4.786547701279E-01  4.013367730051E-01 -8.281338994616E-02
C47  4.240726763530E-01 -2.937552247475E-01  7.816079209215E-03
C48 -4.240726763530E-01  2.937552247475E-01 -7.816079209215E-03
C49 -4.433446574374E-01  3.855376454375E-01  7.470003669144E-02
C50  4.433446574374E-01 -3.855376454375E-01 -7.470003669144E-02
C51 -3.884069498955E-01  2.780109351353E-01  1.507346780122E-01
C52  3.884069498955E-01 -2.780109351353E-01 -1.507346780122E-01
C53 -4.066106515626E-01  3.707887323437E-01  2.324314514995E-01
C54  4.066106515626E-01 -3.707887323437E-01 -2.324314514995E-01
C55 -3.499833970494E-01  2.633850282020E-01  3.101676843693E-01
C56  3.499833970494E-01 -2.633850282020E-01 -3.101676843693E-01
C57 -3.684469225801E-01  3.588857878424E-01  3.897413501152E-01
C58  3.684469225801E-01 -3.588857878424E-01 -3.897413501152E-01
H59 -4.563433111836E-01 -3.572250057841E-01  4.622531650614E-01
H60  4.563433111836E-01  3.572250057841E-01 -4.622531650614E-01
H61  4.427388432727E-01 -1.625166030151E-01  3.323649842257E-01
H62 -4.427388432727E-01  1.625166030151E-01 -3.323649842257E-01
H63  4.024905169305E-01 -1.497960066861E-01  1.726103122242E-01
H64 -4.024905169305E-01  1.497960066861E-01 -1.726103122242E-01
H65  3.660366353897E-01 -1.344306627241E-01  1.397291840844E-02
H66 -3.660366353897E-01  1.344306627241E-01 -1.397291840844E-02
H67 -3.307503324170E-01  1.184413087358E-01  1.445813231142E-01
H68  3.307503324170E-01 -1.184413087358E-01 -1.445813231142E-01
H69 -2.918247997759E-01  1.042512798644E-01  3.041043964559E-01
H70  2.918247997759E-01 -1.042512798644E-01 -3.041043964559E-01
H71 -3.247344720641E-01  2.762378136423E-01  4.480765635704E-01
H72  3.247344720641E-01 -2.762378136423E-01 -4.480765635704E-01


#===END

data_OPT_STEP_28

_symmetry_space_group_name_H-M 'P 1'
_cell_length_a      8.38845895
_cell_length_b      6.21748003
_cell_length_c     15.91510532
_cell_angle_alpha   99.819844
_cell_angle_beta  109.727411
_cell_angle_gamma   87.092808

loop_
_atom_site_label
_atom_site_fract_x
_atom_site_fract_y
_atom_site_fract_z
C1  1.275662706610E-01  4.308182902451E-02  4.056426922856E-01
C2 -1.275662706610E-01 -4.308182902451E-02 -4.056426922856E-01
C3 -1.347540241860E-02 -2.530468770172E-01  2.873213852470E-01
C4  1.347540241860E-02  2.530468770172E-01 -2.873213852470E-01
C5  4.400562765158E-02 -1.645733936836E-01  3.765353796944E-01
C6 -4.400562765158E-02  1.645733936836E-01 -3.765353796944E-01
C7  1.508953232776E-01  1.561187522699E-01  3.446083943272E-01
C8 -1.508953232776E-01 -1.561187522699E-01 -3.446083943272E-01
C9  9.331172536702E-02  6.977269067699E-02  2.498516652844E-01
C10 -9.331172536702E-02 -6.977269067699E-02 -2.498516652844E-01
C11  1.159324100410E-01  1.807442781922E-01  1.862837351838E-01
C12 -1.159324100410E-01 -1.807442781922E-01 -1.862837351838E-01
C13  5.948024785072E-02  9.372888099435E-02  9.314684864355E-02
C14 -5.948024785072E-02 -9.372888099435E-02 -9.314684864355E-02
C15  8.213715350474E-02  2.044664367474E-01  2.847679287973E-02
C16 -8.213715350474E-02 -2.044664367474E-01 -2.847679287973E-02
C17 -2.516818856983E-02 -1.175445210809E-01  6.365626579400E-02
C18  2.516818856983E-02  1.175445210809E-01 -6.365626579400E-02
C19 -4.830538803074E-02 -2.279037809313E-01  1.292264428753E-01
C20  4.830538803074E-02  2.279037809313E-01 -1.292264428753E-01
C21  8.761689893899E-03 -1.412417013925E-01  2.203881606807E-01
C22 -8.761689893899E-03  1.412417013925E-01 -2.203881606807E-01
H23  1.721690913311E-01  1.107779043973E-01  4.770983381704E-01
H24 -1.721690913311E-01 -1.107779043973E-01 -4.770983381704E-01
H25 -7.738167730443E-02 -4.101997708538E-01  2.652367673058E-01
H26  7.738167730443E-02  4.101997708538E-01 -2.652367673058E-01
H27  2.728348268441E-02 -2.524211734789E-01  4.263316510747E-01
H28 -2.728348268441E-02  2.524211734789E-01 -4.263316510747E-01
H29  2.133591935724E-01  3.140163839352E-01  3.662286175625E-01
H30 -2.133591935724E-01 -3.140163839352E-01 -3.662286175625E-01
H31  1.778556006830E-01  3.393748185185E-01  2.081840124394E-01
H32 -1.778556006830E-01 -3.393748185185E-01 -2.081840124394E-01
H33  1.456293274671E-01  3.619490787964E-01  5.045570512476E-02
H34 -1.456293274671E-01 -3.619490787964E-01 -5.045570512476E-02
H35 -1.115894258241E-01 -3.855496351467E-01  1.072677582553E-01
H36  1.115894258241E-01  3.855496351467E-01 -1.072677582553E-01
C37 -4.439037146690E-01 -4.303093444920E-01  3.980897386422E-01
C38  4.439037146690E-01  4.303093444920E-01 -3.980897386422E-01
C39 -4.995573237524E-01 -3.219870579669E-01  3.262243144299E-01
C40  4.995573237524E-01  3.219870579669E-01 -3.262243144299E-01
C41 -4.832495757193E-01 -4.155551489334E-01  2.408084240044E-01
C42  4.832495757193E-01  4.155551489334E-01 -2.408084240044E-01
C43  4.617809281379E-01 -3.086161780720E-01  1.666978222899E-01
C44 -4.617809281379E-01  3.086161780720E-01 -1.666978222899E-01
C45  4.797693815137E-01 -4.007528420836E-01  8.302668092316E-02
C46 -4.797693815137E-01  4.007528420836E-01 -8.302668092316E-02
C47  4.241163448722E-01 -2.938443208310E-01  7.780101518905E-03
C48 -4.241163448722E-01  2.938443208310E-01 -7.780101518905E-03
C49 -4.426546356588E-01  3.859101965808E-01  7.488422750159E-02
C50  4.426546356588E-01 -3.859101965808E-01 -7.488422750159E-02
C51 -3.873063817543E-01  2.786646416886E-01  1.510521058033E-01
C52  3.873063817543E-01 -2.786646416886E-01 -1.510521058033E-01
C53 -4.061097968452E-01  3.711322845139E-01  2.326667258934E-01
C54  4.061097968452E-01 -3.711322845139E-01 -2.326667258934E-01
C55 -3.501963351308E-01  2.635115223584E-01  3.103391763293E-01
C56  3.501963351308E-01 -2.635115223584E-01 -3.103391763293E-01
C57 -3.684007510501E-01  3.591375252532E-01  3.899813803716E-01
C58  3.684007510501E-01 -3.591375252532E-01 -3.899813803716E-01
H59 -4.563873243718E-01 -3.567388517927E-01  4.625065458926E-01
H60  4.563873243718E-01  3.567388517927E-01 -4.625065458926E-01
H61  4.434601683760E-01 -1.621723774819E-01  3.324495163386E-01
H62 -4.434601683760E-01  1.621723774819E-01 -3.324495163386E-01
H63  4.039030857906E-01 -1.492216104240E-01  1.728511885741E-01
H64 -4.039030857906E-01  1.492216104240E-01 -1.728511885741E-01
H65  3.657433022981E-01 -1.347742703549E-01  1.385187546477E-02
H66 -3.657433022981E-01  1.347742703549E-01 -1.385187546477E-02
H67 -3.285552298266E-01  1.197897575593E-01  1.451705444307E-01
H68  3.285552298266E-01 -1.197897575593E-01 -1.451705444307E-01
H69 -2.922805255399E-01  1.043242083968E-01  3.042965077385E-01
H70  2.922805255399E-01 -1.043242083968E-01 -3.042965077385E-01
H71 -3.250468798985E-01  2.764319565833E-01  4.483440416507E-01
H72  3.250468798985E-01 -2.764319565833E-01 -4.483440416507E-01


#===END

data_OPT_STEP_29

_symmetry_space_group_name_H-M 'P 1'
_cell_length_a      8.33102516
_cell_length_b      6.22958080
_cell_length_c     15.92160814
_cell_angle_alpha   99.855771
_cell_angle_beta  109.875906
_cell_angle_gamma   87.013793

loop_
_atom_site_label
_atom_site_fract_x
_atom_site_fract_y
_atom_site_fract_z
C1  1.264347749327E-01  4.197166823777E-02  4.053724975278E-01
C2 -1.264347749327E-01 -4.197166823777E-02 -4.053724975278E-01
C3 -1.369912639672E-02 -2.545440062054E-01  2.867165781673E-01
C4  1.369912639672E-02  2.545440062054E-01 -2.867165781673E-01
C5  4.318001300704E-02 -1.659518634031E-01  3.759821283061E-01
C6 -4.318001300704E-02  1.659518634031E-01 -3.759821283061E-01
C7  1.499671631219E-01  1.551390253415E-01  3.445503994375E-01
C8 -1.499671631219E-01 -1.551390253415E-01 -3.445503994375E-01
C9  9.314148792071E-02  6.860826492252E-02  2.497630469638E-01
C10 -9.314148792071E-02 -6.860826492252E-02 -2.497630469638E-01
C11  1.163441574290E-01  1.796383206523E-01  1.864633819709E-01
C12 -1.163441574290E-01 -1.796383206523E-01 -1.864633819709E-01
C13  5.956219527039E-02  9.319969995077E-02  9.322803073867E-02
C14 -5.956219527039E-02 -9.319969995077E-02 -9.322803073867E-02
C15  8.259580305491E-02  2.041244336952E-01  2.883314691781E-02
C16 -8.259580305491E-02 -2.041244336952E-01 -2.883314691781E-02
C17 -2.542193965068E-02 -1.177375891797E-01  6.342351287456E-02
C18  2.542193965068E-02  1.177375891797E-01 -6.342351287456E-02
C19 -4.824008205546E-02 -2.288191879251E-01  1.287683611236E-01
C20  4.824008205546E-02  2.288191879251E-01 -1.287683611236E-01
C21  8.632638603251E-03 -1.423514307833E-01  2.200104489684E-01
C22 -8.632638603251E-03  1.423514307833E-01 -2.200104489684E-01
H23  1.706871928793E-01  1.095644586598E-01  4.768659831945E-01
H24 -1.706871928793E-01 -1.095644586598E-01 -4.768659831945E-01
H25 -7.701860689680E-02 -4.120337203669E-01  2.644594207015E-01
H26  7.701860689680E-02  4.120337203669E-01 -2.644594207015E-01
H27  2.575575312780E-02 -2.534033126541E-01  4.256059715224E-01
H28 -2.575575312780E-02  2.534033126541E-01 -4.256059715224E-01
H29  2.116151207970E-01  3.137684243158E-01  3.664072155587E-01
H30 -2.116151207970E-01 -3.137684243158E-01 -3.664072155587E-01
H31  1.792284020338E-01  3.376021022795E-01  2.086490504060E-01
H32 -1.792284020338E-01 -3.376021022795E-01 -2.086490504060E-01
H33  1.462986368751E-01  3.614841475951E-01  5.105334455329E-02
H34 -1.462986368751E-01 -3.614841475951E-01 -5.105334455329E-02
H35 -1.114434945548E-01 -3.865031477188E-01  1.065669954436E-01
H36  1.114434945548E-01  3.865031477188E-01 -1.065669954436E-01
C37 -4.442267263982E-01 -4.305527567606E-01  3.979173914626E-01
C38  4.442267263982E-01  4.305527567606E-01 -3.979173914626E-01
C39  4.996472792104E-01 -3.223972778077E-01  3.260156259535E-01
C40 -4.996472792104E-01  3.223972778077E-01 -3.260156259535E-01
C41 -4.839236815745E-01 -4.159061150240E-01  2.406271346398E-01
C42  4.839236815745E-01  4.159061150240E-01 -2.406271346398E-01
C43  4.609691161218E-01 -3.089989787567E-01  1.665201402657E-01
C44 -4.609691161218E-01  3.089989787567E-01 -1.665201402657E-01
C45  4.792465223839E-01 -4.010570957835E-01  8.291557574487E-02
C46 -4.792465223839E-01  4.010570957835E-01 -8.291557574487E-02
C47  4.242884457366E-01 -2.937222747827E-01  7.828122748675E-03
C48 -4.242884457366E-01  2.937222747827E-01 -7.828122748675E-03
C49 -4.429785611168E-01  3.857532656768E-01  7.479021357976E-02
C50  4.429785611168E-01 -3.857532656768E-01 -7.479021357976E-02
C51 -3.877786125864E-01  2.784377568620E-01  1.509022482091E-01
C52  3.877786125864E-01 -2.784377568620E-01 -1.509022482091E-01
C53 -4.062725968070E-01  3.710419511329E-01  2.325444491607E-01
C54  4.062725968070E-01 -3.710419511329E-01 -2.325444491607E-01
C55 -3.498237971952E-01  2.636618784492E-01  3.102809824124E-01
C56  3.498237971952E-01 -2.636618784492E-01 -3.102809824124E-01
C57 -3.682045125463E-01  3.591890203319E-01  3.898675749945E-01
C58  3.682045125463E-01 -3.591890203319E-01 -3.898675749945E-01
H59 -4.565311046260E-01 -3.570433980294E-01  4.622910783624E-01
H60  4.565311046260E-01  3.570433980294E-01 -4.622910783624E-01
H61  4.422485783357E-01 -1.628170150781E-01  3.322003381411E-01
H62 -4.422485783357E-01  1.628170150781E-01 -3.322003381411E-01
H63  4.030968700081E-01 -1.496214720333E-01  1.726808197712E-01
H64 -4.030968700081E-01  1.496214720333E-01 -1.726808197712E-01
H65  3.663194150661E-01 -1.344221937663E-01  1.397971836089E-02
H66 -3.663194150661E-01  1.344221937663E-01 -1.397971836089E-02
H67 -3.295096511632E-01  1.192661496593E-01  1.449012824327E-01
H68  3.295096511632E-01 -1.192661496593E-01 -1.449012824327E-01
H69 -2.916463968114E-01  1.045899898698E-01  3.042548552377E-01
H70  2.916463968114E-01 -1.045899898698E-01 -3.042548552377E-01
H71 -3.247443899459E-01  2.764724667427E-01  4.482062001786E-01
H72  3.247443899459E-01 -2.764724667427E-01 -4.482062001786E-01


#===END

data_OPT_STEP_30

_symmetry_space_group_name_H-M 'P 1'
_cell_length_a      8.33822996
_cell_length_b      6.22326555
_cell_length_c     15.91906684
_cell_angle_alpha   99.827246
_cell_angle_beta  109.790737
_cell_angle_gamma   87.020963

loop_
_atom_site_label
_atom_site_fract_x
_atom_site_fract_y
_atom_site_fract_z
C1  1.266003886442E-01  4.295780483786E-02  4.054033142263E-01
C2 -1.266003886442E-01 -4.295780483786E-02 -4.054033142263E-01
C3 -1.354261203792E-02 -2.539894237278E-01  2.870061442792E-01
C4  1.354261203792E-02  2.539894237278E-01 -2.870061442792E-01
C5  4.341101064905E-02 -1.651772896893E-01  3.762097517930E-01
C6 -4.341101064905E-02  1.651772896893E-01 -3.762097517930E-01
C7  1.502597912354E-01  1.558841671526E-01  3.444662548653E-01
C8 -1.502597912354E-01 -1.558841671526E-01 -3.444662548653E-01
C9  9.310641784892E-02  6.926136472516E-02  2.497286122382E-01
C10 -9.310641784892E-02 -6.926136472516E-02 -2.497286122382E-01
C11  1.166102388198E-01  1.799225024162E-01  1.863315021844E-01
C12 -1.166102388198E-01 -1.799225024162E-01 -1.863315021844E-01
C13  5.948382382211E-02  9.347145430874E-02  9.315194596957E-02
C14 -5.948382382211E-02 -9.347145430874E-02 -9.315194596957E-02
C15  8.273116895705E-02  2.041245822492E-01  2.867051067722E-02
C16 -8.273116895705E-02 -2.041245822492E-01 -2.867051067722E-02
C17 -2.564227357768E-02 -1.174452489013E-01  6.351651593813E-02
C18  2.564227357768E-02  1.174452489013E-01 -6.351651593813E-02
C19 -4.807096619455E-02 -2.286989818017E-01  1.290037558761E-01
C20  4.807096619455E-02  2.286989818017E-01 -1.290037558761E-01
C21  8.658692602200E-03 -1.418314168209E-01  2.201740214547E-01
C22 -8.658692602200E-03  1.418314168209E-01 -2.201740214547E-01
H23  1.714718067175E-01  1.103095326329E-01  4.768794990482E-01
H24 -1.714718067175E-01 -1.103095326329E-01 -4.768794990482E-01
H25 -7.668051059575E-02 -4.116575896044E-01  2.649014379425E-01
H26  7.668051059575E-02  4.116575896044E-01 -2.649014379425E-01
H27  2.560367066874E-02 -2.523134171126E-01  4.258828360954E-01
H28 -2.560367066874E-02  2.523134171126E-01 -4.258828360954E-01
H29  2.123358215256E-01  3.142305210640E-01  3.661456711445E-01
H30 -2.123358215256E-01 -3.142305210640E-01 -3.661456711445E-01
H31  1.802343663021E-01  3.374424332643E-01  2.084082728503E-01
H32 -1.802343663021E-01 -3.374424332643E-01 -2.084082728503E-01
H33  1.464778834483E-01  3.615461182185E-01  5.075107107544E-02
H34 -1.464778834483E-01 -3.615461182185E-01 -5.075107107544E-02
H35 -1.108706406642E-01 -3.867052695686E-01  1.069734070931E-01
H36  1.108706406642E-01  3.867052695686E-01 -1.069734070931E-01
C37 -4.440858782358E-01 -4.301757478357E-01  3.979833682186E-01
C38  4.440858782358E-01  4.301757478357E-01 -3.979833682186E-01
C39 -4.998279229822E-01 -3.217744077370E-01  3.261446533952E-01
C40  4.998279229822E-01  3.217744077370E-01 -3.261446533952E-01
C41 -4.832085775864E-01 -4.153115549118E-01  2.407863735524E-01
C42  4.832085775864E-01  4.153115549118E-01 -2.407863735524E-01
C43  4.612722495722E-01 -3.086113744031E-01  1.665963691443E-01
C44 -4.612722495722E-01  3.086113744031E-01 -1.665963691443E-01
C45  4.793216323136E-01 -4.009261823154E-01  8.293184490573E-02
C46 -4.793216323136E-01  4.009261823154E-01 -8.293184490573E-02
C47  4.243246357069E-01 -2.935805373175E-01  7.826901873704E-03
C48 -4.243246357069E-01  2.935805373175E-01 -7.826901873704E-03
C49 -4.428422858909E-01  3.858121334949E-01  7.482662977845E-02
C50  4.428422858909E-01 -3.858121334949E-01 -7.482662977845E-02
C51 -3.874993766508E-01  2.785950423474E-01  1.509922948625E-01
C52  3.874993766508E-01 -2.785950423474E-01 -1.509922948625E-01
C53 -4.055096542182E-01  3.715156369600E-01  2.327089672009E-01
C54  4.055096542182E-01 -3.715156369600E-01 -2.327089672009E-01
C55 -3.490660355895E-01  2.641296593589E-01  3.104631148361E-01
C56  3.490660355895E-01 -2.641296593589E-01 -3.104631148361E-01
C57 -3.678386792159E-01  3.595508962878E-01  3.899855443241E-01
C58  3.678386792159E-01 -3.595508962878E-01 -3.899855443241E-01
H59 -4.567636869545E-01 -3.568100362732E-01  4.622867148979E-01
H60  4.567636869545E-01  3.568100362732E-01 -4.622867148979E-01
H61  4.426980984295E-01 -1.621339694950E-01  3.323130340865E-01
H62 -4.426980984295E-01  1.621339694950E-01 -3.323130340865E-01
H63  4.033863068982E-01 -1.491587923091E-01  1.727414130514E-01
H64 -4.033863068982E-01  1.491587923091E-01 -1.727414130514E-01
H65  3.659897064380E-01 -1.343831418462E-01  1.390646918577E-02
H66 -3.659897064380E-01  1.343831418462E-01 -1.390646918577E-02
H67 -3.292840290504E-01  1.192862616218E-01  1.449807339164E-01
H68  3.292840290504E-01 -1.192862616218E-01 -1.449807339164E-01
H69 -2.905759888368E-01  1.051137430842E-01  3.044929375929E-01
H70  2.905759888368E-01 -1.051137430842E-01 -3.044929375929E-01
H71 -3.247268169708E-01  2.766095787565E-01  4.482761208140E-01
H72  3.247268169708E-01 -2.766095787565E-01 -4.482761208140E-01


#===END

data_OPT_STEP_31

_symmetry_space_group_name_H-M 'P 1'
_cell_length_a      8.34996039
_cell_length_b      6.21411362
_cell_length_c     15.91834521
_cell_angle_alpha   99.769592
_cell_angle_beta  109.757294
_cell_angle_gamma   87.057674

loop_
_atom_site_label
_atom_site_fract_x
_atom_site_fract_y
_atom_site_fract_z
C1  1.270012207146E-01  4.326029330494E-02  4.054215910986E-01
C2 -1.270012207146E-01 -4.326029330494E-02 -4.054215910986E-01
C3 -1.358124544549E-02 -2.538306579243E-01  2.871911585991E-01
C4  1.358124544549E-02  2.538306579243E-01 -2.871911585991E-01
C5  4.382331627909E-02 -1.651147624446E-01  3.763736687084E-01
C6 -4.382331627909E-02  1.651147624446E-01 -3.763736687084E-01
C7  1.505924056404E-01  1.561960948972E-01  3.443882246297E-01
C8 -1.505924056404E-01 -1.561960948972E-01 -3.443882246297E-01
C9  9.310094411927E-02  6.959626257224E-02  2.496859613479E-01
C10 -9.310094411927E-02 -6.959626257224E-02 -2.496859613479E-01
C11  1.165361698265E-01  1.803571658896E-01  1.862144035082E-01
C12 -1.165361698265E-01 -1.803571658896E-01 -1.862144035082E-01
C13  5.955064673154E-02  9.356782332696E-02  9.308209068984E-02
C14 -5.955064673154E-02 -9.356782332696E-02 -9.308209068984E-02
C15  8.274584421371E-02  2.043134717054E-01  2.853707944309E-02
C16 -8.274584421371E-02 -2.043134717054E-01 -2.853707944309E-02
C17 -2.558435475835E-02 -1.175011273771E-01  6.361419933779E-02
C18  2.558435475835E-02  1.175011273771E-01 -6.361419933779E-02
C19 -4.829770753744E-02 -2.285805581791E-01  1.291369474877E-01
C20  4.829770753744E-02  2.285805581791E-01 -1.291369474877E-01
C21  8.590415049912E-03 -1.416381024423E-01  2.202698791824E-01
C22 -8.590415049912E-03  1.416381024423E-01 -2.202698791824E-01
H23  1.715387785109E-01  1.109626745302E-01  4.768350438836E-01
H24 -1.715387785109E-01 -1.109626745302E-01 -4.768350438836E-01
H25 -7.676681134632E-02 -4.116418690532E-01  2.651853355670E-01
H26  7.676681134632E-02  4.116418690532E-01 -2.651853355670E-01
H27  2.599978661423E-02 -2.521748055596E-01  4.261199522590E-01
H28 -2.599978661423E-02  2.521748055596E-01 -4.261199522590E-01
H29  2.124618434151E-01  3.149098426571E-01  3.659633387290E-01
H30 -2.124618434151E-01 -3.149098426571E-01 -3.659633387290E-01
H31  1.800853909999E-01  3.381208410106E-01  2.081871251979E-01
H32 -1.800853909999E-01 -3.381208410106E-01 -2.081871251979E-01
H33  1.462052138001E-01  3.621030449859E-01  5.048530520262E-02
H34 -1.462052138001E-01 -3.621030449859E-01 -5.048530520262E-02
H35 -1.118470643920E-01 -3.863145298549E-01  1.071484904313E-01
H36  1.118470643920E-01  3.863145298549E-01 -1.071484904313E-01
C37 -4.446225323251E-01 -4.300424196787E-01  3.979077883530E-01
C38  4.446225323251E-01  4.300424196787E-01 -3.979077883530E-01
C39  4.997818822372E-01 -3.214828606596E-01  3.260535514223E-01
C40 -4.997818822372E-01  3.214828606596E-01 -3.260535514223E-01
C41 -4.835668011906E-01 -4.151614604406E-01  2.407223486050E-01
C42  4.835668011906E-01  4.151614604406E-01 -2.407223486050E-01
C43  4.607708737291E-01 -3.085420517594E-01  1.664376244227E-01
C44 -4.607708737291E-01  3.085420517594E-01 -1.664376244227E-01
C45  4.787972147471E-01 -4.010612938531E-01  8.279569740384E-02
C46 -4.787972147471E-01  4.010612938531E-01 -8.279569740384E-02
C47  4.240150835203E-01 -2.936071407943E-01  7.668548898057E-03
C48 -4.240150835203E-01  2.936071407943E-01 -7.668548898057E-03
C49 -4.429904393913E-01  3.857712678126E-01  7.486575287689E-02
C50  4.429904393913E-01 -3.857712678126E-01 -7.486575287689E-02
C51 -3.877948686901E-01  2.784778026375E-01  1.510554585614E-01
C52  3.877948686901E-01 -2.784778026375E-01 -1.510554585614E-01
C53 -4.060158909473E-01  3.714193688070E-01  2.327099770814E-01
C54  4.060158909473E-01 -3.714193688070E-01 -2.327099770814E-01
C55 -3.497294725216E-01  2.639311409472E-01  3.104856995239E-01
C56  3.497294725216E-01 -2.639311409472E-01 -3.104856995239E-01
C57 -3.686515865456E-01  3.593812105611E-01  3.899472743219E-01
C58  3.686515865456E-01 -3.593812105611E-01 -3.899472743219E-01
H59 -4.572012167459E-01 -3.567112090911E-01  4.621462998815E-01
H60  4.572012167459E-01  3.567112090911E-01 -4.621462998815E-01
H61  4.422353911646E-01 -1.617523292803E-01  3.321528324142E-01
H62 -4.422353911646E-01  1.617523292803E-01 -3.321528324142E-01
H63  4.023776123508E-01 -1.492266429416E-01  1.724066398894E-01
H64 -4.023776123508E-01  1.492266429416E-01 -1.724066398894E-01
H65  3.658711563614E-01 -1.341788948748E-01  1.370448827511E-02
H66 -3.658711563614E-01  1.341788948748E-01 -1.370448827511E-02
H67 -3.296758159549E-01  1.189877203401E-01  1.450886043305E-01
H68  3.296758159549E-01 -1.189877203401E-01 -1.450886043305E-01
H69 -2.913727971338E-01  1.046913946355E-01  3.045508063816E-01
H70  2.913727971338E-01 -1.046913946355E-01 -3.045508063816E-01
H71 -3.254691416763E-01  2.764504720755E-01  4.482856791811E-01
H72  3.254691416763E-01 -2.764504720755E-01 -4.482856791811E-01


#===END

data_OPT_STEP_32

_symmetry_space_group_name_H-M 'P 1'
_cell_length_a      8.34545591
_cell_length_b      6.20150395
_cell_length_c     15.91797066
_cell_angle_alpha   99.733179
_cell_angle_beta  109.712602
_cell_angle_gamma   87.058482

loop_
_atom_site_label
_atom_site_fract_x
_atom_site_fract_y
_atom_site_fract_z
C1  1.270662176163E-01  4.295550542623E-02  4.053268010481E-01
C2 -1.270662176163E-01 -4.295550542623E-02 -4.053268010481E-01
C3 -1.374076913129E-02 -2.544912925977E-01  2.871984618198E-01
C4  1.374076913129E-02  2.544912925977E-01 -2.871984618198E-01
C5  4.355434077555E-02 -1.655895152785E-01  3.763322483451E-01
C6 -4.355434077555E-02  1.655895152785E-01 -3.763322483451E-01
C7  1.507441352259E-01  1.560933636793E-01  3.442802548851E-01
C8 -1.507441352259E-01 -1.560933636793E-01 -3.442802548851E-01
C9  9.358075835462E-02  6.916670924679E-02  2.496389595134E-01
C10 -9.358075835462E-02 -6.916670924679E-02 -2.496389595134E-01
C11  1.171428960500E-01  1.801492158003E-01  1.861599105856E-01
C12 -1.171428960500E-01 -1.801492158003E-01 -1.861599105856E-01
C13  5.984810889746E-02  9.344759751944E-02  9.305701476775E-02
C14 -5.984810889746E-02 -9.344759751944E-02 -9.305701476775E-02
C15  8.294137660396E-02  2.045541342216E-01  2.848947991984E-02
C16 -8.294137660396E-02 -2.045541342216E-01 -2.848947991984E-02
C17 -2.551232403010E-02 -1.178251897891E-01  6.364907150501E-02
C18  2.551232403010E-02  1.178251897891E-01 -6.364907150501E-02
C19 -4.815224992406E-02 -2.292684727564E-01  1.291827236196E-01
C20  4.815224992406E-02  2.292684727564E-01 -1.291827236196E-01
C21  8.780100237514E-03 -1.422490445329E-01  2.202785107724E-01
C22 -8.780100237514E-03  1.422490445329E-01 -2.202785107724E-01
H23  1.716320727449E-01  1.106652793838E-01  4.767063528789E-01
H24 -1.716320727449E-01 -1.106652793838E-01 -4.767063528789E-01
H25 -7.719785189876E-02 -4.124181327409E-01  2.652324601348E-01
H26  7.719785189876E-02  4.124181327409E-01 -2.652324601348E-01
H27  2.543628236581E-02 -2.525953552116E-01  4.260857710469E-01
H28 -2.543628236581E-02  2.525953552116E-01 -4.260857710469E-01
H29  2.122292452187E-01  3.154863052330E-01  3.658253020508E-01
H30 -2.122292452187E-01 -3.154863052330E-01 -3.658253020508E-01
H31  1.810047886600E-01  3.379976825764E-01  2.080934035351E-01
H32 -1.810047886600E-01 -3.379976825764E-01 -2.080934035351E-01
H33  1.463915262366E-01  3.626561961345E-01  5.037479100756E-02
H34 -1.463915262366E-01 -3.626561961345E-01 -5.037479100756E-02
H35 -1.118162483029E-01 -3.872336337312E-01  1.072294418416E-01
H36  1.118162483029E-01  3.872336337312E-01 -1.072294418416E-01
C37 -4.449501207057E-01 -4.299245417440E-01  3.978209630488E-01
C38  4.449501207057E-01  4.299245417440E-01 -3.978209630488E-01
C39  4.990325921622E-01 -3.213618002506E-01  3.258906540972E-01
C40 -4.990325921622E-01  3.213618002506E-01 -3.258906540972E-01
C41 -4.840864342757E-01 -4.151468325577E-01  2.406077000641E-01
C42  4.840864342757E-01  4.151468325577E-01 -2.406077000641E-01
C43  4.605042887833E-01 -3.081807801291E-01  1.663600245917E-01
C44 -4.605042887833E-01  3.081807801291E-01 -1.663600245917E-01
C45  4.787529822211E-01 -4.008463508813E-01  8.277336801059E-02
C46 -4.787529822211E-01  4.008463508813E-01 -8.277336801059E-02
C47  4.238069801168E-01 -2.932907170963E-01  7.606576742497E-03
C48 -4.238069801168E-01  2.932907170963E-01 -7.606576742497E-03
C49 -4.427088221757E-01  3.857463619057E-01  7.492481155882E-02
C50  4.427088221757E-01 -3.857463619057E-01 -7.492481155882E-02
C51 -3.872794332040E-01  2.783817690283E-01  1.511681983070E-01
C52  3.872794332040E-01 -2.783817690283E-01 -1.511681983070E-01
C53 -4.058113548206E-01  3.714087190036E-01  2.327498829749E-01
C54  4.058113548206E-01 -3.714087190036E-01 -2.327498829749E-01
C55 -3.492430917555E-01  2.638467592713E-01  3.105857059861E-01
C56  3.492430917555E-01 -2.638467592713E-01 -3.105857059861E-01
C57 -3.684433520758E-01  3.593834161134E-01  3.899757652768E-01
C58  3.684433520758E-01 -3.593834161134E-01 -3.899757652768E-01
H59 -4.575019944211E-01 -3.565265043206E-01  4.620136888641E-01
H60  4.575019944211E-01  3.565265043206E-01 -4.620136888641E-01
H61  4.411139608809E-01 -1.615028197122E-01  3.319125400314E-01
H62 -4.411139608809E-01  1.615028197122E-01 -3.319125400314E-01
H63  4.021929146934E-01 -1.485075730235E-01  1.723234018507E-01
H64 -4.021929146934E-01  1.485075730235E-01 -1.723234018507E-01
H65  3.656784160409E-01 -1.335234182661E-01  1.362024459282E-02
H66 -3.656784160409E-01  1.335234182661E-01 -1.362024459282E-02
H67 -3.289752192334E-01  1.186604078110E-01  1.452474553734E-01
H68  3.289752192334E-01 -1.186604078110E-01 -1.452474553734E-01
H69 -2.906964798592E-01  1.043756096763E-01  3.046934605160E-01
H70  2.906964798592E-01 -1.043756096763E-01 -3.046934605160E-01
H71 -3.251924158558E-01  2.763389923843E-01  4.483303864405E-01
H72  3.251924158558E-01 -2.763389923843E-01 -4.483303864405E-01


#===END

data_OPT_STEP_33

_symmetry_space_group_name_H-M 'P 1'
_cell_length_a      8.36269263
_cell_length_b      6.19649214
_cell_length_c     15.91585476
_cell_angle_alpha   99.684296
_cell_angle_beta  109.687996
_cell_angle_gamma   87.122229

loop_
_atom_site_label
_atom_site_fract_x
_atom_site_fract_y
_atom_site_fract_z
C1  1.267441230212E-01  4.342490410408E-02  4.053865872146E-01
C2 -1.267441230212E-01 -4.342490410408E-02 -4.053865872146E-01
C3 -1.326951249086E-02 -2.546807048539E-01  2.874132910924E-01
C4  1.326951249086E-02  2.546807048539E-01 -2.874132910924E-01
C5  4.381844227742E-02 -1.655854607622E-01  3.765060749274E-01
C6 -4.381844227742E-02  1.655854607622E-01 -3.765060749274E-01
C7  1.506382348699E-01  1.564070332943E-01  3.442798621021E-01
C8 -1.506382348699E-01 -1.564070332943E-01 -3.442798621021E-01
C9  9.378789359928E-02  6.921946219328E-02  2.496716165350E-01
C10 -9.378789359928E-02 -6.921946219328E-02 -2.496716165350E-01
C11  1.173648481263E-01  1.801591333888E-01  1.861259708059E-01
C12 -1.173648481263E-01 -1.801591333888E-01 -1.861259708059E-01
C13  5.988499396768E-02  9.356689137603E-02  9.303976343527E-02
C14 -5.988499396768E-02 -9.356689137603E-02 -9.303976343527E-02
C15  8.291080845069E-02  2.046820989102E-01  2.839080796348E-02
C16 -8.291080845069E-02 -2.046820989102E-01 -2.839080796348E-02
C17 -2.558733896801E-02 -1.177766421203E-01  6.371523236024E-02
C18  2.558733896801E-02  1.177766421203E-01 -6.371523236024E-02
C19 -4.810664018052E-02 -2.292656542187E-01  1.293299671729E-01
C20  4.810664018052E-02  2.292656542187E-01 -1.293299671729E-01
C21  8.927386786749E-03 -1.422461999731E-01  2.204014916715E-01
C22 -8.927386786749E-03  1.422461999731E-01 -2.204014916715E-01
H23  1.706053282988E-01  1.116922992168E-01  4.767076642071E-01
H24 -1.706053282988E-01 -1.116922992168E-01 -4.767076642071E-01
H25 -7.671090047146E-02 -4.126947182668E-01  2.655203107674E-01
H26  7.671090047146E-02  4.126947182668E-01 -2.655203107674E-01
H27  2.614768182326E-02 -2.529362480149E-01  4.263300348392E-01
H28 -2.614768182326E-02  2.529362480149E-01 -4.263300348392E-01
H29  2.122559874089E-01  3.157962769058E-01  3.657718268721E-01
H30 -2.122559874089E-01 -3.157962769058E-01 -3.657718268721E-01
H31  1.813488281815E-01  3.379688206258E-01  2.080029100134E-01
H32 -1.813488281815E-01 -3.379688206258E-01 -2.080029100134E-01
H33  1.463195726093E-01  3.628583418775E-01  5.020161686144E-02
H34 -1.463195726093E-01 -3.628583418775E-01 -5.020161686144E-02
H35 -1.112700328570E-01 -3.876113029720E-01  1.074898941625E-01
H36  1.112700328570E-01  3.876113029720E-01 -1.074898941625E-01
C37 -4.448850816205E-01 -4.301111695216E-01  3.978310694870E-01
C38  4.448850816205E-01  4.301111695216E-01 -3.978310694870E-01
C39  4.991540094332E-01 -3.215103284870E-01  3.258732084739E-01
C40 -4.991540094332E-01  3.215103284870E-01 -3.258732084739E-01
C41 -4.842726485022E-01 -4.154073437084E-01  2.405558191122E-01
C42  4.842726485022E-01  4.154073437084E-01 -2.405558191122E-01
C43  4.606128356143E-01 -3.082491313662E-01  1.663304102452E-01
C44 -4.606128356143E-01  3.082491313662E-01 -1.663304102452E-01
C45  4.788556214873E-01 -4.008274265146E-01  8.277376926434E-02
C46 -4.788556214873E-01  4.008274265146E-01 -8.277376926434E-02
C47  4.236162103950E-01 -2.934149626458E-01  7.521412060563E-03
C48 -4.236162103950E-01  2.934149626458E-01 -7.521412060563E-03
C49 -4.428478722095E-01  3.856186625220E-01  7.493334443655E-02
C50  4.428478722095E-01 -3.856186625220E-01 -7.493334443655E-02
C51 -3.875023130009E-01  2.781402164290E-01  1.511767759355E-01
C52  3.875023130009E-01 -2.781402164290E-01 -1.511767759355E-01
C53 -4.064117308376E-01  3.709453477644E-01  2.326908482729E-01
C54  4.064117308376E-01 -3.709453477644E-01 -2.326908482729E-01
C55 -3.498889855914E-01  2.633402869781E-01  3.105485762096E-01
C56  3.498889855914E-01 -2.633402869781E-01 -3.105485762096E-01
C57 -3.686297594555E-01  3.590817011229E-01  3.900001619009E-01
C58  3.686297594555E-01 -3.590817011229E-01 -3.900001619009E-01
H59 -4.570525733778E-01 -3.564759354079E-01  4.620946661190E-01
H60  4.570525733778E-01  3.564759354079E-01 -4.620946661190E-01
H61  4.420032468809E-01 -1.612765875417E-01  3.319901467787E-01
H62 -4.420032468809E-01  1.612765875417E-01 -3.319901467787E-01
H63  4.026689279581E-01 -1.483883201088E-01  1.723302600582E-01
H64 -4.026689279581E-01  1.483883201088E-01 -1.723302600582E-01
H65  3.646546128778E-01 -1.341182128638E-01  1.334338852867E-02
H66 -3.646546128778E-01  1.341182128638E-01 -1.334338852867E-02
H67 -3.289103978680E-01  1.186050433577E-01  1.453593634266E-01
H68  3.289103978680E-01 -1.186050433577E-01 -1.453593634266E-01
H69 -2.914715844801E-01  1.038336440609E-01  3.046873929874E-01
H70  2.914715844801E-01 -1.038336440609E-01 -3.046873929874E-01
H71 -3.250456669997E-01  2.762505324429E-01  4.484464378056E-01
H72  3.250456669997E-01 -2.762505324429E-01 -4.484464378056E-01


#===END

data_OPT_STEP_34

_symmetry_space_group_name_H-M 'P 1'
_cell_length_a      8.36387573
_cell_length_b      6.19634720
_cell_length_c     15.91486817
_cell_angle_alpha   99.670782
_cell_angle_beta  109.673087
_cell_angle_gamma   87.135464

loop_
_atom_site_label
_atom_site_fract_x
_atom_site_fract_y
_atom_site_fract_z
C1  1.267188118106E-01  4.354656411871E-02  4.054036878307E-01
C2 -1.267188118106E-01 -4.354656411871E-02 -4.054036878307E-01
C3 -1.321945728080E-02 -2.546014711917E-01  2.874863016859E-01
C4  1.321945728080E-02  2.546014711917E-01 -2.874863016859E-01
C5  4.374887778250E-02 -1.654162616062E-01  3.765567667121E-01
C6 -4.374887778250E-02  1.654162616062E-01 -3.765567667121E-01
C7  1.505377523595E-01  1.565717112400E-01  3.442726009715E-01
C8 -1.505377523595E-01 -1.565717112400E-01 -3.442726009715E-01
C9  9.357440595682E-02  6.945126928157E-02  2.496677037668E-01
C10 -9.357440595682E-02 -6.945126928157E-02 -2.496677037668E-01
C11  1.171334941780E-01  1.803680838672E-01  1.860936441525E-01
C12 -1.171334941780E-01 -1.803680838672E-01 -1.860936441525E-01
C13  5.980849487283E-02  9.365833757656E-02  9.302276386394E-02
C14 -5.980849487283E-02 -9.365833757656E-02 -9.302276386394E-02
C15  8.294360546963E-02  2.046613730334E-01  2.835044273529E-02
C16 -8.294360546963E-02 -2.046613730334E-01 -2.835044273529E-02
C17 -2.567565309992E-02 -1.176855867964E-01  6.373665230453E-02
C18  2.567565309992E-02  1.176855867964E-01 -6.373665230453E-02
C19 -4.825927751406E-02 -2.290870563125E-01  1.293809979101E-01
C20  4.825927751406E-02  2.290870563125E-01 -1.293809979101E-01
C21  8.786761239591E-03 -1.420551587534E-01  2.204378447540E-01
C22 -8.786761239591E-03  1.420551587534E-01 -2.204378447540E-01
H23  1.707814091297E-01  1.116967088461E-01  4.767294278982E-01
H24 -1.707814091297E-01 -1.116967088461E-01 -4.767294278982E-01
H25 -7.652568342775E-02 -4.126914665208E-01  2.656311983718E-01
H26  7.652568342775E-02  4.126914665208E-01 -2.656311983718E-01
H27  2.612147383298E-02 -2.528164579986E-01  4.263971290475E-01
H28 -2.612147383298E-02  2.528164579986E-01 -4.263971290475E-01
H29  2.123277697112E-01  3.158194896937E-01  3.657301222329E-01
H30 -2.123277697112E-01 -3.158194896937E-01 -3.657301222329E-01
H31  1.809796512155E-01  3.382590795233E-01  2.079370315295E-01
H32 -1.809796512155E-01 -3.382590795233E-01 -2.079370315295E-01
H33  1.465397747055E-01  3.626974629484E-01  5.014684128180E-02
H34 -1.465397747055E-01 -3.626974629484E-01 -5.014684128180E-02
H35 -1.113632806885E-01 -3.874482838247E-01  1.075822611556E-01
H36  1.113632806885E-01  3.874482838247E-01 -1.075822611556E-01
C37 -4.446321485232E-01 -4.301232430573E-01  3.978712119795E-01
C38  4.446321485232E-01  4.301232430573E-01 -3.978712119795E-01
C39  4.992917910900E-01 -3.216066068240E-01  3.258850084598E-01
C40 -4.992917910900E-01  3.216066068240E-01 -3.258850084598E-01
C41 -4.841006962588E-01 -4.154388734197E-01  2.405798114127E-01
C42  4.841006962588E-01  4.154388734197E-01 -2.405798114127E-01
C43  4.605375057723E-01 -3.084103691754E-01  1.663110573974E-01
C44 -4.605375057723E-01  3.084103691754E-01 -1.663110573974E-01
C45  4.788933681090E-01 -4.008529027051E-01  8.278062575372E-02
C46 -4.788933681090E-01  4.008529027051E-01 -8.278062575372E-02
C47  4.237620093035E-01 -2.933507810163E-01  7.552242296774E-03
C48 -4.237620093035E-01  2.933507810163E-01 -7.552242296774E-03
C49 -4.428311543124E-01  3.855847985077E-01  7.493395314939E-02
C50  4.428311543124E-01 -3.855847985077E-01 -7.493395314939E-02
C51 -3.874550659233E-01  2.781115707161E-01  1.511843338251E-01
C52  3.874550659233E-01 -2.781115707161E-01 -1.511843338251E-01
C53 -4.062103453079E-01  3.709526538289E-01  2.327235383433E-01
C54  4.062103453079E-01 -3.709526538289E-01 -2.327235383433E-01
C55 -3.496161876186E-01  2.633814616462E-01  3.105978199830E-01
C56  3.496161876186E-01 -2.633814616462E-01 -3.105978199830E-01
C57 -3.683035691960E-01  3.591228776050E-01  3.900597092956E-01
C58  3.683035691960E-01 -3.591228776050E-01 -3.900597092956E-01
H59 -4.567918344934E-01 -3.564197503557E-01  4.621622114448E-01
H60  4.567918344934E-01  3.564197503557E-01 -4.621622114448E-01
H61  4.419445598345E-01 -1.614885770943E-01  3.319596958871E-01
H62 -4.419445598345E-01  1.614885770943E-01 -3.319596958871E-01
H63  4.024243318654E-01 -1.486508490370E-01  1.722814222099E-01
H64 -4.024243318654E-01  1.486508490370E-01 -1.722814222099E-01
H65  3.650276890559E-01 -1.339499033997E-01  1.342076458861E-02
H66 -3.650276890559E-01  1.339499033997E-01 -1.342076458861E-02
H67 -3.289406442531E-01  1.185519605061E-01  1.453576721258E-01
H68  3.289406442531E-01 -1.185519605061E-01 -1.453576721258E-01
H69 -2.911226712337E-01  1.039473128050E-01  3.047576660639E-01
H70  2.911226712337E-01 -1.039473128050E-01 -3.047576660639E-01
H71 -3.246898008109E-01  2.763175709610E-01  4.485187863287E-01
H72  3.246898008109E-01 -2.763175709610E-01 -4.485187863287E-01


#===END

data_OPT_STEP_35

_symmetry_space_group_name_H-M 'P 1'
_cell_length_a      8.36501710
_cell_length_b      6.19644863
_cell_length_c     15.91436562
_cell_angle_alpha   99.660353
_cell_angle_beta  109.657877
_cell_angle_gamma   87.136666

loop_
_atom_site_label
_atom_site_fract_x
_atom_site_fract_y
_atom_site_fract_z
C1  1.269971321358E-01  4.353919115156E-02  4.054162112875E-01
C2 -1.269971321358E-01 -4.353919115156E-02 -4.054162112875E-01
C3 -1.341088244657E-02 -2.542758777292E-01  2.875378429862E-01
C4  1.341088244657E-02  2.542758777292E-01 -2.875378429862E-01
C5  4.377626753487E-02 -1.652203430678E-01  3.766022939687E-01
C6 -4.377626753487E-02  1.652203430678E-01 -3.766022939687E-01
C7  1.506910583848E-01  1.566098719052E-01  3.442555187132E-01
C8 -1.506910583848E-01 -1.566098719052E-01 -3.442555187132E-01
C9  9.359605479310E-02  6.953644941256E-02  2.496629111276E-01
C10 -9.359605479310E-02 -6.953644941256E-02 -2.496629111276E-01
C11  1.170532955391E-01  1.804730677640E-01  1.860558013598E-01
C12 -1.170532955391E-01 -1.804730677640E-01 -1.860558013598E-01
C13  5.982272152013E-02  9.365343008155E-02  9.300533291156E-02
C14 -5.982272152013E-02 -9.365343008155E-02 -9.300533291156E-02
C15  8.283923437191E-02  2.047023688543E-01  2.829961987249E-02
C16 -8.283923437191E-02 -2.047023688543E-01 -2.829961987249E-02
C17 -2.552240162637E-02 -1.177348528636E-01  6.377099064923E-02
C18  2.552240162637E-02  1.177348528636E-01 -6.377099064923E-02
C19 -4.806777256484E-02 -2.291162583162E-01  1.294480810662E-01
C20  4.806777256484E-02  2.291162583162E-01 -1.294480810662E-01
C21  8.881669963900E-03 -1.419940107686E-01  2.204850199723E-01
C22 -8.881669963900E-03  1.419940107686E-01 -2.204850199723E-01
H23  1.714665047353E-01  1.114327473030E-01  4.767541762401E-01
H24 -1.714665047353E-01 -1.114327473030E-01 -4.767541762401E-01
H25 -7.671760932132E-02 -4.123360156450E-01  2.657178981532E-01
H26  7.671760932132E-02  4.123360156450E-01 -2.657178981532E-01
H27  2.611328293865E-02 -2.525803687540E-01  4.264568695666E-01
H28 -2.611328293865E-02  2.525803687540E-01 -4.264568695666E-01
H29  2.125282925527E-01  3.157678890715E-01  3.656505218391E-01
H30 -2.125282925527E-01 -3.157678890715E-01 -3.656505218391E-01
H31  1.806555251319E-01  3.385116740946E-01  2.078532655503E-01
H32 -1.806555251319E-01 -3.385116740946E-01 -2.078532655503E-01
H33  1.464718187543E-01  3.626914032734E-01  5.007033913768E-02
H34 -1.464718187543E-01 -3.626914032734E-01 -5.007033913768E-02
H35 -1.113207638063E-01 -3.873482214986E-01  1.076730206834E-01
H36  1.113207638063E-01  3.873482214986E-01 -1.076730206834E-01
C37 -4.444882194738E-01 -4.300178717795E-01  3.979021565462E-01
C38  4.444882194738E-01  4.300178717795E-01 -3.979021565462E-01
C39  4.994897241779E-01 -3.215093647256E-01  3.259164036602E-01
C40 -4.994897241779E-01  3.215093647255E-01 -3.259164036602E-01
C41 -4.839013165139E-01 -4.153421684872E-01  2.406182285378E-01
C42  4.839013165139E-01  4.153421684872E-01 -2.406182285378E-01
C43  4.606071038624E-01 -3.083963308350E-01  1.663231932371E-01
C44 -4.606071038624E-01  3.083963308350E-01 -1.663231932371E-01
C45  4.788042877601E-01 -4.009114798080E-01  8.276078330958E-02
C46 -4.788042877601E-01  4.009114798080E-01 -8.276078330958E-02
C47  4.236417783580E-01 -2.934378896958E-01  7.520258649662E-03
C48 -4.236417783580E-01  2.934378896958E-01 -7.520258649662E-03
C49 -4.427794961698E-01  3.856201823717E-01  7.495170528960E-02
C50  4.427794961698E-01 -3.856201823717E-01 -7.495170528960E-02
C51 -3.874308471385E-01  2.781614819516E-01  1.512062577820E-01
C52  3.874308471385E-01 -2.781614819516E-01 -1.512062577820E-01
C53 -4.059530785615E-01  3.710975939501E-01  2.327799496727E-01
C54  4.059530785615E-01 -3.710975939501E-01 -2.327799496727E-01
C55 -3.493942249230E-01  2.635423120253E-01  3.106542895787E-01
C56  3.493942249230E-01 -2.635423120253E-01 -3.106542895787E-01
C57 -3.681102843898E-01  3.592631141944E-01  3.901115504348E-01
C58  3.681102843898E-01 -3.592631141944E-01 -3.901115504348E-01
H59 -4.567732948913E-01 -3.563173706323E-01  4.621842092142E-01
H60  4.567732948913E-01  3.563173706323E-01 -4.621842092142E-01
H61  4.419906970998E-01 -1.614840269844E-01  3.319537441874E-01
H62 -4.419906970998E-01  1.614840269844E-01 -3.319537441874E-01
H63  4.024066238405E-01 -1.487007586349E-01  1.722723753947E-01
H64 -4.024066238405E-01  1.487007586349E-01 -1.722723753947E-01
H65  3.649351152358E-01 -1.340432686036E-01  1.338879650838E-02
H66 -3.649351152358E-01  1.340432686036E-01 -1.338879650838E-02
H67 -3.289744440327E-01  1.185853198234E-01  1.453772925507E-01
H68  3.289744440327E-01 -1.185853198234E-01 -1.453772925507E-01
H69 -2.909784269580E-01  1.040813559026E-01  3.048076100556E-01
H70  2.909784269580E-01 -1.040813559026E-01 -3.048076100556E-01
H71 -3.245538380881E-01  2.764424530417E-01  4.485687060150E-01
H72  3.245538380881E-01 -2.764424530417E-01 -4.485687060150E-01


#===END

data_OPT_STEP_36

_symmetry_space_group_name_H-M 'P 1'
_cell_length_a      8.36424566
_cell_length_b      6.19593640
_cell_length_c     15.91362044
_cell_angle_alpha   99.644382
_cell_angle_beta  109.633085
_cell_angle_gamma   87.143192

loop_
_atom_site_label
_atom_site_fract_x
_atom_site_fract_y
_atom_site_fract_z
C1  1.271792506585E-01  4.367101374467E-02  4.054129373679E-01
C2 -1.271792506585E-01 -4.367101374467E-02 -4.054129373679E-01
C3 -1.333730376420E-02 -2.541751847359E-01  2.876187795027E-01
C4  1.333730376420E-02  2.541751847359E-01 -2.876187795027E-01
C5  4.388778388438E-02 -1.650668895803E-01  3.766612817622E-01
C6 -4.388778388438E-02  1.650668895803E-01 -3.766612817622E-01
C7  1.508345517898E-01  1.567091411863E-01  3.442114401586E-01
C8 -1.508345517898E-01 -1.567091411863E-01 -3.442114401586E-01
C9  9.361003852712E-02  6.963728904999E-02  2.496398613134E-01
C10 -9.361003852712E-02 -6.963728904999E-02 -2.496398613134E-01
C11  1.170702080026E-01  1.805400773164E-01  1.860009640029E-01
C12 -1.170702080026E-01 -1.805400773164E-01 -1.860009640029E-01
C13  5.981287395022E-02  9.367614688248E-02  9.297437298631E-02
C14 -5.981287395022E-02 -9.367614688248E-02 -9.297437298631E-02
C15  8.289298025947E-02  2.046642033703E-01  2.824873997112E-02
C16 -8.289298025947E-02 -2.046642033703E-01 -2.824873997112E-02
C17 -2.550193916853E-02 -1.177137420788E-01  6.380276072009E-02
C18  2.550193916853E-02  1.177137420788E-01 -6.380276072009E-02
C19 -4.804442079522E-02 -2.290800166021E-01  1.295112023470E-01
C20  4.804442079522E-02  2.290800166021E-01 -1.295112023470E-01
C21  8.920778609651E-03 -1.419136396537E-01  2.205266686901E-01
C22 -8.920778609651E-03  1.419136396537E-01 -2.205266686901E-01
H23  1.715963035769E-01  1.116430725920E-01  4.767296322025E-01
H24 -1.715963035769E-01 -1.116430725920E-01 -4.767296322025E-01
H25 -7.657844195985E-02 -4.122761430833E-01  2.658526874820E-01
H26  7.657844195985E-02  4.122761430833E-01 -2.658526874820E-01
H27  2.608518581585E-02 -2.522887014563E-01  4.265370988760E-01
H28 -2.608518581585E-02  2.522887014563E-01 -4.265370988760E-01
H29  2.126729603283E-01  3.158566074175E-01  3.655310319588E-01
H30 -2.126729603283E-01 -3.158566074175E-01 -3.655310319588E-01
H31  1.807267913748E-01  3.385491833690E-01  2.077557977686E-01
H32 -1.807267913748E-01 -3.385491833690E-01 -2.077557977686E-01
H33  1.465011642630E-01  3.626795078184E-01  4.997536044846E-02
H34 -1.465011642630E-01 -3.626795078184E-01 -4.997536044846E-02
H35 -1.114167184366E-01 -3.872355552458E-01  1.077700568192E-01
H36  1.114167184366E-01  3.872355552458E-01 -1.077700568192E-01
C37 -4.443884288002E-01 -4.298646188907E-01  3.979274455986E-01
C38  4.443884288002E-01  4.298646188907E-01 -3.979274455986E-01
C39  4.995377902020E-01 -3.214114239034E-01  3.259238939465E-01
C40 -4.995377902020E-01  3.214114239034E-01 -3.259238939465E-01
C41 -4.837929855914E-01 -4.152417964756E-01  2.406426169448E-01
C42  4.837929855914E-01  4.152417964756E-01 -2.406426169448E-01
C43  4.606954931896E-01 -3.083253282563E-01  1.663377788523E-01
C44 -4.606954931896E-01  3.083253282563E-01 -1.663377788523E-01
C45  4.789444426705E-01 -4.008359434596E-01  8.278493648803E-02
C46 -4.789444426705E-01  4.008359434596E-01 -8.278493648803E-02
C47  4.237912736966E-01 -2.933680627843E-01  7.538926939708E-03
C48 -4.237912736966E-01  2.933680627843E-01 -7.538926939708E-03
C49 -4.427245132699E-01  3.856662933010E-01  7.496924722580E-02
C50  4.427245132699E-01 -3.856662933010E-01 -7.496924722580E-02
C51 -3.872757668189E-01  2.782885833636E-01  1.512554826265E-01
C52  3.872757668189E-01 -2.782885833636E-01 -1.512554826265E-01
C53 -4.057522282543E-01  3.712507879575E-01  2.328308482686E-01
C54  4.057522282543E-01 -3.712507879575E-01 -2.328308482686E-01
C55 -3.491483226404E-01  2.637480340598E-01  3.107225422341E-01
C56  3.491483226404E-01 -2.637480340598E-01 -3.107225422341E-01
C57 -3.679911678082E-01  3.594197005868E-01  3.901547826026E-01
C58  3.679911678082E-01 -3.594197005868E-01 -3.901547826026E-01
H59 -4.568138102819E-01 -3.562084775353E-01  4.621782136585E-01
H60  4.568138102819E-01  3.562084775353E-01 -4.621782136585E-01
H61  4.418732984505E-01 -1.614781510985E-01  3.319207498168E-01
H62 -4.418732984505E-01  1.614781510985E-01 -3.319207498168E-01
H63  4.024312627263E-01 -1.486776647367E-01  1.722680668945E-01
H64 -4.024312627263E-01  1.486776647367E-01 -1.722680668945E-01
H65  3.653567059499E-01 -1.338353214390E-01  1.345228933084E-02
H66 -3.653567059499E-01  1.338353214390E-01 -1.345228933084E-02
H67 -3.287709482598E-01  1.187431952085E-01  1.454412430865E-01
H68  3.287709482598E-01 -1.187431952085E-01 -1.454412430865E-01
H69 -2.906280345036E-01  1.043447080892E-01  3.049006827018E-01
H70  2.906280345036E-01 -1.043447080892E-01 -3.049006827018E-01
H71 -3.245250756580E-01  2.765622621803E-01  4.486045955092E-01
H72  3.245250756580E-01 -2.765622621803E-01 -4.486045955092E-01


#===END

data_OPT_STEP_37

_symmetry_space_group_name_H-M 'P 1'
_cell_length_a      8.36608945
_cell_length_b      6.19303838
_cell_length_c     15.91136364
_cell_angle_alpha   99.604268
_cell_angle_beta  109.580935
_cell_angle_gamma   87.163200

loop_
_atom_site_label
_atom_site_fract_x
_atom_site_fract_y
_atom_site_fract_z
C1  1.274539165191E-01  4.387428769087E-02  4.054247167453E-01
C2 -1.274539165191E-01 -4.387428769087E-02 -4.054247167453E-01
C3 -1.308381997480E-02 -2.541397854165E-01  2.878063880715E-01
C4  1.308381997480E-02  2.541397854165E-01 -2.878063880715E-01
C5  4.408387928665E-02 -1.648716008754E-01  3.767997377698E-01
C6 -4.408387928665E-02  1.648716008754E-01 -3.767997377698E-01
C7  1.510254449520E-01  1.569022330504E-01  3.441403423207E-01
C8 -1.510254449520E-01 -1.569022330504E-01 -3.441403423207E-01
C9  9.371329119365E-02  6.976009098475E-02  2.496129360211E-01
C10 -9.371329119365E-02 -6.976009098475E-02 -2.496129360211E-01
C11  1.170573890345E-01  1.807177617089E-01  1.858982494262E-01
C12 -1.170573890345E-01 -1.807177617089E-01 -1.858982494262E-01
C13  5.979323781150E-02  9.374712717489E-02  9.291724571025E-02
C14 -5.979323781150E-02 -9.374712717489E-02 -9.291724571025E-02
C15  8.288492134098E-02  2.047018360044E-01  2.812941614002E-02
C16 -8.288492134098E-02 -2.047018360044E-01 -2.812941614002E-02
C17 -2.545038343926E-02 -1.177096507174E-01  6.388186417879E-02
C18  2.545038343926E-02  1.177096507174E-01 -6.388186417879E-02
C19 -4.802981832161E-02 -2.290291111866E-01  1.296509900316E-01
C20  4.802981832161E-02  2.290291111866E-01 -1.296509900316E-01
C21  9.065970437551E-03 -1.418593966572E-01  2.206280847908E-01
C22 -9.065970437551E-03  1.418593966572E-01 -2.206280847908E-01
H23  1.720566434036E-01  1.117834484876E-01  4.767161067499E-01
H24 -1.720566434036E-01 -1.117834484876E-01 -4.767161067499E-01
H25 -7.659845962317E-02 -4.121043670172E-01  2.661182915429E-01
H26  7.659845962317E-02  4.121043670172E-01 -2.661182915429E-01
H27  2.621755842710E-02 -2.520103424379E-01  4.267287709553E-01
H28 -2.621755842710E-02  2.520103424379E-01 -4.267287709553E-01
H29  2.128166540977E-01  3.161148827504E-01  3.653357112027E-01
H30 -2.128166540977E-01 -3.161148827504E-01 -3.653357112027E-01
H31  1.806779675536E-01  3.387954498179E-01  2.075581872178E-01
H32 -1.806779675536E-01 -3.387954498179E-01 -2.075581872178E-01
H33  1.465259538565E-01  3.627341812576E-01  4.976542977416E-02
H34 -1.465259538565E-01 -3.627341812576E-01 -4.976542977416E-02
H35 -1.113231345707E-01 -3.872732922695E-01  1.080025702000E-01
H36  1.113231345707E-01  3.872732922695E-01 -1.080025702000E-01
C37 -4.442906106605E-01 -4.296324936028E-01  3.979659864051E-01
C38  4.442906106605E-01  4.296324936028E-01 -3.979659864051E-01
C39  4.995619726603E-01 -3.212208526851E-01  3.259293894050E-01
C40 -4.995619726603E-01  3.212208526851E-01 -3.259293894050E-01
C41 -4.836639618775E-01 -4.150515463219E-01  2.406762214194E-01
C42  4.836639618775E-01  4.150515463219E-01 -2.406762214194E-01
C43  4.605547068360E-01 -3.083004994145E-01  1.662988783386E-01
C44 -4.605547068360E-01  3.083004994145E-01 -1.662988783386E-01
C45  4.787912756197E-01 -4.008762711883E-01  8.274690181616E-02
C46 -4.787912756197E-01  4.008762711883E-01 -8.274690181616E-02
C47  4.236764221941E-01 -2.933939607716E-01  7.485474249129E-03
C48 -4.236764221941E-01  2.933939607716E-01 -7.485474249129E-03
C49 -4.426305135973E-01  3.857342231432E-01  7.501053789553E-02
C50  4.426305135973E-01 -3.857342231432E-01 -7.501053789553E-02
C51 -3.871114035306E-01  2.784125062781E-01  1.513364194682E-01
C52  3.871114035306E-01 -2.784125062781E-01 -1.513364194682E-01
C53 -4.055624889245E-01  3.714273730567E-01  2.329061023738E-01
C54  4.055624889245E-01 -3.714273730567E-01 -2.329061023738E-01
C55 -3.489043801100E-01  2.639714307852E-01  3.108319445633E-01
C56  3.489043801100E-01 -2.639714307852E-01 -3.108319445633E-01
C57 -3.678020784231E-01  3.596627422182E-01  3.902439807594E-01
C58  3.678020784231E-01 -3.596627422182E-01 -3.902439807594E-01
H59 -4.567625340074E-01 -3.559894100539E-01  4.621836475822E-01
H60  4.567625340074E-01  3.559894100539E-01 -4.621836475822E-01
H61  4.417808222708E-01 -1.613210749785E-01  3.318852365217E-01
H62 -4.417808222708E-01  1.613210749785E-01 -3.318852365217E-01
H63  4.021429581570E-01 -1.487044036959E-01  1.721752697883E-01
H64 -4.021429581570E-01  1.487044036959E-01 -1.721752697883E-01
H65  3.652573735556E-01 -1.338200827214E-01  1.337831969289E-02
H66 -3.652573735556E-01  1.338200827214E-01 -1.337831969289E-02
H67 -3.288433906781E-01  1.187019806187E-01  1.454976017632E-01
H68  3.288433906781E-01 -1.187019806187E-01 -1.454976017632E-01
H69 -2.903232280174E-01  1.045625170095E-01  3.050414057892E-01
H70  2.903232280174E-01 -1.045625170095E-01 -3.050414057892E-01
H71 -3.243502458521E-01  2.768067328177E-01  4.487110961043E-01
H72  3.243502458521E-01 -2.768067328177E-01 -4.487110961043E-01


#===END

data_OPT_STEP_38

_symmetry_space_group_name_H-M 'P 1'
_cell_length_a      8.36864134
_cell_length_b      6.19046465
_cell_length_c     15.90859385
_cell_angle_alpha   99.560602
_cell_angle_beta  109.527259
_cell_angle_gamma   87.190529

loop_
_atom_site_label
_atom_site_fract_x
_atom_site_fract_y
_atom_site_fract_z
C1  1.275154512144E-01  4.413320603856E-02  4.054482572093E-01
C2 -1.275154512144E-01 -4.413320603856E-02 -4.054482572093E-01
C3 -1.298155424445E-02 -2.540008392791E-01  2.879999994524E-01
C4  1.298155424445E-02  2.540008392791E-01 -2.879999994524E-01
C5  4.419386361427E-02 -1.646717984256E-01  3.769473298874E-01
C6 -4.419386361427E-02  1.646717984256E-01 -3.769473298874E-01
C7  1.511025931177E-01  1.571103367992E-01  3.440900536463E-01
C8 -1.511025931177E-01 -1.571103367992E-01 -3.440900536463E-01
C9  9.374885117564E-02  6.992464567318E-02  2.496022141913E-01
C10 -9.374885117564E-02 -6.992464567318E-02 -2.496022141913E-01
C11  1.170966872134E-01  1.808382934343E-01  1.858145026885E-01
C12 -1.170966872134E-01 -1.808382934343E-01 -1.858145026885E-01
C13  5.984794934486E-02  9.379397671064E-02  9.287545107131E-02
C14 -5.984794934486E-02 -9.379397671064E-02 -9.287545107131E-02
C15  8.287475804894E-02  2.047434953824E-01  2.800504873939E-02
C16 -8.287475804894E-02 -2.047434953824E-01 -2.800504873939E-02
C17 -2.545202611650E-02 -1.176719885942E-01  6.396183125056E-02
C18  2.545202611650E-02  1.176719885942E-01 -6.396183125056E-02
C19 -4.798525201978E-02 -2.289678112858E-01  1.298098297109E-01
C20  4.798525201978E-02  2.289678112858E-01 -1.298098297109E-01
C21  9.113169651092E-03 -1.417303974377E-01  2.207425345378E-01
C22 -9.113169651092E-03  1.417303974377E-01 -2.207425345378E-01
H23  1.721526514206E-01  1.120608387288E-01  4.767081318395E-01
H24 -1.721526514206E-01 -1.120608387288E-01 -4.767081318395E-01
H25 -7.627184510940E-02 -4.121323268242E-01  2.664225249165E-01
H26  7.627184510940E-02  4.121323268242E-01 -2.664225249165E-01
H27  2.640140734726E-02 -2.518496976487E-01  4.269339594299E-01
H28 -2.640140734726E-02  2.518496976487E-01 -4.269339594299E-01
H29  2.129038163563E-01  3.163456824857E-01  3.651854622702E-01
H30 -2.129038163563E-01 -3.163456824857E-01 -3.651854622702E-01
H31  1.807014292992E-01  3.389490969846E-01  2.073821726202E-01
H32 -1.807014292992E-01 -3.389490969846E-01 -2.073821726202E-01
H33  1.465338228818E-01  3.627834938105E-01  4.954755591600E-02
H34 -1.465338228818E-01 -3.627834938105E-01 -4.954755591600E-02
H35 -1.113417640955E-01 -3.872001476799E-01  1.082498921078E-01
H36  1.113417640955E-01  3.872001476799E-01 -1.082498921078E-01
C37 -4.441442925432E-01 -4.294798409650E-01  3.980102965450E-01
C38  4.441442925432E-01  4.294798409650E-01 -3.980102965450E-01
C39  4.996142204476E-01 -3.211221305086E-01  3.259351921087E-01
C40 -4.996142204476E-01  3.211221305086E-01 -3.259351921087E-01
C41 -4.836462072511E-01 -4.149928876664E-01  2.406825231353E-01
C42  4.836462072511E-01  4.149928876664E-01 -2.406825231353E-01
C43  4.605488375259E-01 -3.082563982944E-01  1.662802648330E-01
C44 -4.605488375259E-01  3.082563982944E-01 -1.662802648330E-01
C45  4.788373277039E-01 -4.008243964196E-01  8.274717558735E-02
C46 -4.788373277039E-01  4.008243964196E-01 -8.274717558735E-02
C47  4.237199023081E-01 -2.933420941540E-01  7.465467862325E-03
C48 -4.237199023081E-01  2.933420941540E-01 -7.465467862325E-03
C49 -4.425998732583E-01  3.857479585543E-01  7.503716119009E-02
C50  4.425998732583E-01 -3.857479585543E-01 -7.503716119009E-02
C51 -3.870160623852E-01  2.784621890544E-01  1.513961028833E-01
C52  3.870160623852E-01 -2.784621890544E-01 -1.513961028833E-01
C53 -4.054084854055E-01  3.715405889226E-01  2.329685612183E-01
C54  4.054084854055E-01 -3.715405889226E-01 -2.329685612183E-01
C55 -3.486378717015E-01  2.641451553759E-01  3.109383661786E-01
C56  3.486378717015E-01 -2.641451553759E-01 -3.109383661786E-01
C57 -3.675354890390E-01  3.598657155012E-01  3.903423626145E-01
C58  3.675354890390E-01 -3.598657155012E-01 -3.903423626145E-01
H59 -4.565500000491E-01 -3.557872433114E-01  4.622301932327E-01
H60  4.565500000491E-01  3.557872433114E-01 -4.622301932327E-01
H61  4.417053117093E-01 -1.612665378535E-01  3.318469954512E-01
H62 -4.417053117093E-01  1.612665378535E-01 -3.318469954512E-01
H63  4.020924628816E-01 -1.486608731471E-01  1.721267556048E-01
H64 -4.020924628816E-01  1.486608731471E-01 -1.721267556048E-01
H65  3.653338856902E-01 -1.337247626366E-01  1.334277331982E-02
H66 -3.653338856902E-01  1.337247626366E-01 -1.334277331982E-02
H67 -3.285969769888E-01  1.188157902723E-01  1.456068000744E-01
H68  3.285969769888E-01 -1.188157902723E-01 -1.456068000744E-01
H69 -2.899788990327E-01  1.047618980397E-01  3.051861813390E-01
H70  2.899788990327E-01 -1.047618980397E-01 -3.051861813390E-01
H71 -3.240069969462E-01  2.770643717797E-01  4.488427793426E-01
H72  3.240069969462E-01 -2.770643717797E-01 -4.488427793426E-01


#===END

data_OPT_STEP_39

_symmetry_space_group_name_H-M 'P 1'
_cell_length_a      8.36862952
_cell_length_b      6.18848315
_cell_length_c     15.90225297
_cell_angle_alpha   99.483426
_cell_angle_beta  109.394857
_cell_angle_gamma   87.229651

loop_
_atom_site_label
_atom_site_fract_x
_atom_site_fract_y
_atom_site_fract_z
C1  1.279342266218E-01  4.457373146802E-02  4.055053511120E-01
C2 -1.279342266218E-01 -4.457373146802E-02 -4.055053511120E-01
C3 -1.266512872783E-02 -2.535332468274E-01  2.884202895867E-01
C4  1.266512872783E-02  2.535332468274E-01 -2.884202895867E-01
C5  4.463067402957E-02 -1.641858088571E-01  3.772703846622E-01
C6 -4.463067402957E-02  1.641858088571E-01 -3.772703846622E-01
C7  1.513591265982E-01  1.575088531625E-01  3.439828486573E-01
C8 -1.513591265982E-01 -1.575088531625E-01 -3.439828486573E-01
C9  9.391590735296E-02  7.026140906473E-02  2.495820555347E-01
C10 -9.391590735296E-02 -7.026140906473E-02 -2.495820555347E-01
C11  1.171556869958E-01  1.810667590823E-01  1.856242422359E-01
C12 -1.171556869958E-01 -1.810667590823E-01 -1.856242422359E-01
C13  5.985279035745E-02  9.393532815639E-02  9.277782257087E-02
C14 -5.985279035745E-02 -9.393532815639E-02 -9.277782257087E-02
C15  8.275434739718E-02  2.047757435108E-01  2.772731005130E-02
C16 -8.275434739718E-02 -2.047757435108E-01 -2.772731005130E-02
C17 -2.533316594741E-02 -1.175666103119E-01  6.413863470633E-02
C18  2.533316594741E-02  1.175666103119E-01 -6.413863470633E-02
C19 -4.769768431545E-02 -2.287868559468E-01  1.301644702953E-01
C20  4.769768431545E-02  2.287868559468E-01 -1.301644702953E-01
C21  9.313756632193E-03 -1.413676484664E-01  2.209932227458E-01
C22 -9.313756632193E-03  1.413676484664E-01 -2.209932227458E-01
H23  1.726062874915E-01  1.125544024915E-01  4.766921006798E-01
H24 -1.726062874915E-01 -1.125544024915E-01 -4.766921006798E-01
H25 -7.586317927870E-02 -4.116849395451E-01  2.670526128125E-01
H26  7.586317927870E-02  4.116849395451E-01 -2.670526128125E-01
H27  2.686744337763E-02 -2.512818375216E-01  4.273772622967E-01
H28 -2.686744337763E-02  2.512818375216E-01 -4.273772622967E-01
H29  2.132173508133E-01  3.166731784698E-01  3.648723828562E-01
H30 -2.132173508133E-01 -3.166731784698E-01 -3.648723828562E-01
H31  1.807014339421E-01  3.391748072871E-01  2.069824352159E-01
H32 -1.807014339421E-01 -3.391748072871E-01 -2.069824352159E-01
H33  1.463199192967E-01  3.628407111565E-01  4.905888938845E-02
H34 -1.463199192967E-01 -3.628407111565E-01 -4.905888938845E-02
H35 -1.110397490511E-01 -3.869869970617E-01  1.088108507981E-01
H36  1.110397490511E-01  3.869869970617E-01 -1.088108507981E-01
C37 -4.437189384324E-01 -4.290888716001E-01  3.981356093303E-01
C38  4.437189384324E-01  4.290888716001E-01 -3.981356093303E-01
C39  4.999126799861E-01 -3.208511435417E-01  3.260095173240E-01
C40 -4.999126799861E-01  3.208511435417E-01 -3.260095173240E-01
C41 -4.833691308294E-01 -4.147614674066E-01  2.407542492110E-01
C42  4.833691308294E-01  4.147614674066E-01 -2.407542492110E-01
C43  4.608022627327E-01 -3.080716097065E-01  1.663264274856E-01
C44 -4.608022627327E-01  3.080716097065E-01 -1.663264274856E-01
C45  4.790441283687E-01 -4.006812071123E-01  8.278523981392E-02
C46 -4.790441283687E-01  4.006812071123E-01 -8.278523981392E-02
C47  4.236614783451E-01 -2.933711939312E-01  7.431186753953E-03
C48 -4.236614783451E-01  2.933711939312E-01 -7.431186753953E-03
C49 -4.424055162473E-01  3.858730301745E-01  7.509765703738E-02
C50  4.424055162473E-01 -3.858730301745E-01 -7.509765703738E-02
C51 -3.866984831462E-01  2.786829339509E-01  1.515052181176E-01
C52  3.866984831462E-01 -2.786829339509E-01 -1.515052181176E-01
C53 -4.050836094266E-01  3.718023817205E-01  2.330780097541E-01
C54  4.050836094266E-01 -3.718023817205E-01 -2.330780097541E-01
C55 -3.481866185338E-01  2.645240422817E-01  3.111023384086E-01
C56  3.481866185338E-01 -2.645240422817E-01 -3.111023384086E-01
C57 -3.670188757550E-01  3.603123116285E-01  3.905143290532E-01
C58  3.670188757550E-01 -3.603123116285E-01 -3.905143290532E-01
H59 -4.561628811035E-01 -3.553648369605E-01  4.623606457104E-01
H60  4.561628811035E-01  3.553648369605E-01 -4.623606457104E-01
H61  4.419655008606E-01 -1.610260065517E-01  3.318924193233E-01
H62 -4.419655008606E-01  1.610260065517E-01 -3.318924193233E-01
H63  4.022917838950E-01 -1.485043223826E-01  1.721446150851E-01
H64 -4.022917838950E-01  1.485043223826E-01 -1.721446150851E-01
H65  3.652264208753E-01 -1.337803713093E-01  1.328173990197E-02
H66 -3.652264208753E-01  1.337803713093E-01 -1.328173990197E-02
H67 -3.280873282869E-01  1.191464539379E-01  1.457718347418E-01
H68  3.280873282869E-01 -1.191464539379E-01 -1.457718347418E-01
H69 -2.894874596624E-01  1.051755364767E-01  3.053826303158E-01
H70  2.894874596624E-01 -1.051755364767E-01 -3.053826303158E-01
H71 -3.234309239697E-01  2.775952463291E-01  4.490520023206E-01
H72  3.234309239697E-01 -2.775952463291E-01 -4.490520023206E-01


#===END

data_OPT_STEP_40

_symmetry_space_group_name_H-M 'P 1'
_cell_length_a      8.36514280
_cell_length_b      6.18122734
_cell_length_c     15.88993240
_cell_angle_alpha   99.324846
_cell_angle_beta  109.114904
_cell_angle_gamma   87.325142

loop_
_atom_site_label
_atom_site_fract_x
_atom_site_fract_y
_atom_site_fract_z
C1  1.284767366723E-01  4.524005886663E-02  4.055172930347E-01
C2 -1.284767366723E-01 -4.524005886663E-02 -4.055172930347E-01
C3 -1.188004189965E-02 -2.533362678059E-01  2.891660339383E-01
C4  1.188004189965E-02  2.533362678059E-01 -2.891660339383E-01
C5  4.545486449186E-02 -1.637855369622E-01  3.778111239645E-01
C6 -4.545486449186E-02  1.637855369622E-01 -3.778111239645E-01
C7  1.518455032492E-01  1.580448628594E-01  3.436903423861E-01
C8 -1.518455032492E-01 -1.580448628594E-01 -3.436903423861E-01
C9  9.442548424799E-02  7.052850558290E-02  2.494917620366E-01
C10 -9.442548424799E-02 -7.052850558290E-02 -2.494917620366E-01
C11  1.174627702504E-01  1.813152597711E-01  1.852287919628E-01
C12 -1.174627702504E-01 -1.813152597711E-01 -1.852287919628E-01
C13  6.003988954667E-02  9.405511505843E-02  9.257931117749E-02
C14 -6.003988954667E-02 -9.405511505843E-02 -9.257931117749E-02
C15  8.268983242107E-02  2.048953509517E-01  2.721593170693E-02
C16 -8.268983242107E-02 -2.048953509517E-01 -2.721593170693E-02
C17 -2.514404177273E-02 -1.175439025371E-01  6.445734826889E-02
C18  2.514404177273E-02  1.175439025371E-01 -6.445734826889E-02
C19 -4.729457275858E-02 -2.287279494309E-01  1.307939239828E-01
C20  4.729457275858E-02  2.287279494309E-01 -1.307939239828E-01
C21  9.930805489573E-03 -1.412406116615E-01  2.214312062761E-01
C22 -9.930805489573E-03  1.412406116615E-01 -2.214312062761E-01
H23  1.729975180785E-01  1.134747655014E-01  4.765410383558E-01
H24 -1.729975180785E-01 -1.134747655014E-01 -4.765410383558E-01
H25 -7.470907525567E-02 -4.117734498190E-01  2.682186004767E-01
H26  7.470907525567E-02  4.117734498190E-01 -2.682186004767E-01
H27  2.785570895662E-02 -2.508885938852E-01  4.281513182898E-01
H28 -2.785570895662E-02  2.508885938852E-01 -4.281513182898E-01
H29  2.136985008196E-01  3.172568174227E-01  3.641528577061E-01
H30 -2.136985008196E-01 -3.172568174227E-01 -3.641528577061E-01
H31  1.808516869217E-01  3.395761728501E-01  2.061862257612E-01
H32 -1.808516869217E-01 -3.395761728501E-01 -2.061862257612E-01
H33  1.462160629694E-01  3.630387499054E-01  4.815427797313E-02
H34 -1.462160629694E-01 -3.630387499054E-01 -4.815427797313E-02
H35 -1.105751592087E-01 -3.870168264291E-01  1.098325380293E-01
H36  1.105751592087E-01  3.870168264291E-01 -1.098325380293E-01
C37 -4.431410541784E-01 -4.282003746190E-01  3.983375569903E-01
C38  4.431410541784E-01  4.282003746190E-01 -3.983375569903E-01
C39 -4.996476616768E-01 -3.201306102251E-01  3.261309448355E-01
C40  4.996476616768E-01  3.201306102251E-01 -3.261309448355E-01
C41 -4.830527593407E-01 -4.142640433642E-01  2.408582006041E-01
C42  4.830527593407E-01  4.142640433642E-01 -2.408582006041E-01
C43  4.610252571711E-01 -3.076882392117E-01  1.663640520347E-01
C44 -4.610252571711E-01  3.076882392117E-01 -1.663640520347E-01
C45  4.792042501906E-01 -4.004624170070E-01  8.281335769144E-02
C46 -4.792042501906E-01  4.004624170070E-01 -8.281335769144E-02
C47  4.236774829354E-01 -2.932850632003E-01  7.380198343021E-03
C48 -4.236774829354E-01  2.932850632003E-01 -7.380198343021E-03
C49 -4.423236036079E-01  3.859673702666E-01  7.516803419609E-02
C50  4.423236036079E-01 -3.859673702666E-01 -7.516803419609E-02
C51 -3.863137326985E-01  2.789997624673E-01  1.516880661023E-01
C52  3.863137326985E-01 -2.789997624673E-01 -1.516880661023E-01
C53 -4.045471921023E-01  3.723432997970E-01  2.332844254589E-01
C54  4.045471921023E-01 -3.723432997970E-01 -2.332844254589E-01
C55 -3.474702338358E-01  2.652509281477E-01  3.113996126971E-01
C56  3.474702338358E-01 -2.652509281477E-01 -3.113996126971E-01
C57 -3.662694757665E-01  3.612129376609E-01  3.908128567824E-01
C58  3.662694757665E-01 -3.612129376609E-01 -3.908128567824E-01
H59 -4.556633358101E-01 -3.543613003232E-01  4.625568312120E-01
H60  4.556633358101E-01  3.543613003232E-01 -4.625568312120E-01
H61  4.422128913145E-01 -1.603510232699E-01  3.319322484002E-01
H62 -4.422128913145E-01  1.603510232699E-01 -3.319322484002E-01
H63  4.025246342327E-01 -1.480582495715E-01  1.721427840624E-01
H64 -4.025246342327E-01  1.480582495715E-01 -1.721427840624E-01
H65  3.651039268761E-01 -1.337106293381E-01  1.316491805655E-02
H66 -3.651039268761E-01  1.337106293381E-01 -1.316491805655E-02
H67 -3.274773955559E-01  1.195272780421E-01  1.460385825060E-01
H68  3.274773955559E-01 -1.195272780421E-01 -1.460385825060E-01
H69 -2.886526386035E-01  1.059134580365E-01  3.057519114725E-01
H70  2.886526386035E-01 -1.059134580365E-01 -3.057519114725E-01
H71 -3.224938445672E-01  2.786952429030E-01  4.494374656374E-01
H72  3.224938445672E-01 -2.786952429030E-01 -4.494374656374E-01


#===END

data_OPT_STEP_41

_symmetry_space_group_name_H-M 'P 1'
_cell_length_a      8.36736552
_cell_length_b      6.16272489
_cell_length_c     15.86751923
_cell_angle_alpha   98.999441
_cell_angle_beta  108.575530
_cell_angle_gamma   87.534327

loop_
_atom_site_label
_atom_site_fract_x
_atom_site_fract_y
_atom_site_fract_z
C1  1.294198642954E-01  4.664670641258E-02  4.054863787820E-01
C2 -1.294198642954E-01 -4.664670641258E-02 -4.054863787820E-01
C3 -1.089925161481E-02 -2.527491719623E-01  2.905744135368E-01
C4  1.089925161481E-02  2.527491719623E-01 -2.905744135368E-01
C5  4.666635925733E-02 -1.628164637146E-01  3.788224251762E-01
C6 -4.666635925733E-02  1.628164637146E-01 -3.788224251762E-01
C7  1.524509054484E-01  1.594227136206E-01  3.430460290192E-01
C8 -1.524509054484E-01 -1.594227136206E-01 -3.430460290192E-01
C9  9.478007643695E-02  7.151072886245E-02  2.492379630208E-01
C10 -9.478007643695E-02 -7.151072886245E-02 -2.492379630208E-01
C11  1.176441329973E-01  1.821605108625E-01  1.843918159688E-01
C12 -1.176441329973E-01 -1.821605108625E-01 -1.843918159688E-01
C13  6.015445934498E-02  9.448280958369E-02  9.214039283487E-02
C14 -6.015445934498E-02 -9.448280958369E-02 -9.214039283487E-02
C15  8.241745780638E-02  2.053635498190E-01  2.620467213490E-02
C16 -8.241745780638E-02 -2.053635498190E-01 -2.620467213490E-02
C17 -2.483113278336E-02 -1.175525774600E-01  6.507829015894E-02
C18  2.483113278336E-02  1.175525774600E-01 -6.507829015894E-02
C19 -4.664153374239E-02 -2.287212151332E-01  1.319981882905E-01
C20  4.664153374239E-02  2.287212151332E-01 -1.319981882905E-01
C21  1.054602903404E-02 -1.407083576758E-01  2.222373405851E-01
C22 -1.054602903404E-02  1.407083576758E-01 -2.222373405851E-01
H23  1.740488100143E-01  1.151615968007E-01  4.762137196908E-01
H24 -1.740488100143E-01 -1.151615968007E-01 -4.762137196908E-01
H25 -7.336394554273E-02 -4.116308663940E-01  2.704295479552E-01
H26  7.336394554273E-02  4.116308663940E-01 -2.704295479552E-01
H27  2.970318777370E-02 -2.501255041697E-01  4.296599843708E-01
H28 -2.970318777370E-02  2.501255041697E-01 -4.296599843708E-01
H29  2.140184240338E-01  3.190347687726E-01  3.626569919228E-01
H30 -2.140184240338E-01 -3.190347687726E-01 -3.626569919228E-01
H31  1.811076748363E-01  3.405592152801E-01  2.045781541673E-01
H32 -1.811076748363E-01 -3.405592152801E-01 -2.045781541673E-01
H33  1.457231725712E-01  3.638494273106E-01  4.635543665097E-02
H34 -1.457231725712E-01 -3.638494273106E-01 -4.635543665097E-02
H35 -1.096907281944E-01 -3.873694068680E-01  1.118261389586E-01
H36  1.096907281944E-01  3.873694068680E-01 -1.118261389586E-01
C37 -4.424683724972E-01 -4.267926937915E-01  3.986050033927E-01
C38  4.424683724972E-01  4.267926937915E-01 -3.986050033927E-01
C39 -4.992717306556E-01 -3.190098224137E-01  3.262266052737E-01
C40  4.992717306556E-01  3.190098224137E-01 -3.262266052737E-01
C41 -4.826626175690E-01 -4.134436103265E-01  2.409894173354E-01
C42  4.826626175690E-01  4.134436103265E-01 -2.409894173354E-01
C43  4.612718245802E-01 -3.070263424933E-01  1.663588463077E-01
C44 -4.612718245802E-01  3.070263424933E-01 -1.663588463077E-01
C45  4.794349536828E-01 -4.000715305758E-01  8.283268289022E-02
C46 -4.794349536828E-01  4.000715305758E-01 -8.283268289022E-02
C47  4.233243113270E-01 -2.932886441682E-01  7.182134773295E-03
C48 -4.233243113270E-01  2.932886441682E-01 -7.182134773295E-03
C49 -4.417750282200E-01  3.863260203597E-01  7.538731768740E-02
C50  4.417750282200E-01 -3.863260203597E-01 -7.538731768740E-02
C51 -3.855430968152E-01  2.795423588562E-01  1.520443711635E-01
C52  3.855430968152E-01 -2.795423588562E-01 -1.520443711635E-01
C53 -4.038609936185E-01  3.731202839132E-01  2.336185989905E-01
C54  4.038609936185E-01 -3.731202839132E-01 -2.336185989905E-01
C55 -3.462689701869E-01  2.664003596903E-01  3.119372715812E-01
C56  3.462689701869E-01 -2.664003596903E-01 -3.119372715812E-01
C57 -3.650812550649E-01  3.626855323795E-01  3.913307359496E-01
C58  3.650812550649E-01 -3.626855323795E-01 -3.913307359496E-01
H59 -4.547670675491E-01 -3.525117861886E-01  4.628397700192E-01
H60  4.547670675491E-01  3.525117861886E-01 -4.628397700192E-01
H61  4.424320951051E-01 -1.591576572711E-01  3.318937798431E-01
H62 -4.424320951051E-01  1.591576572711E-01 -3.318937798431E-01
H63  4.026074531908E-01 -1.473257237598E-01  1.720113451921E-01
H64 -4.026074531908E-01  1.473257237598E-01 -1.720113451921E-01
H65  3.645727860430E-01 -1.336572082080E-01  1.283685812229E-02
H66 -3.645727860430E-01  1.336572082080E-01 -1.283685812229E-02
H67 -3.262727924764E-01  1.201468308015E-01  1.465770226842E-01
H68  3.262727924764E-01 -1.201468308015E-01 -1.465770226842E-01
H69 -2.870428081250E-01  1.071254311813E-01  3.064820800108E-01
H70  2.870428081250E-01 -1.071254311813E-01 -3.064820800108E-01
H71 -3.207918418752E-01  2.805829430368E-01  4.501552276058E-01
H72  3.207918418752E-01 -2.805829430368E-01 -4.501552276058E-01


#===END

data_OPT_STEP_42

_symmetry_space_group_name_H-M 'P 1'
_cell_length_a      8.37374747
_cell_length_b      6.12573218
_cell_length_c     15.82359718
_cell_angle_alpha   98.545775
_cell_angle_beta  107.396475
_cell_angle_gamma   87.870617

loop_
_atom_site_label
_atom_site_fract_x
_atom_site_fract_y
_atom_site_fract_z
C1  1.316016061555E-01  4.875518401686E-02  4.054735125424E-01
C2 -1.316016061555E-01 -4.875518401686E-02 -4.054735125424E-01
C3 -8.353788995727E-03 -2.522759473581E-01  2.931448997119E-01
C4  8.353788995727E-03  2.522759473581E-01 -2.931448997119E-01
C5  4.939312626094E-02 -1.615936669434E-01  3.806536574311E-01
C6 -4.939312626094E-02  1.615936669434E-01 -3.806536574311E-01
C7  1.541818389527E-01  1.615526188627E-01  3.420117457973E-01
C8 -1.541818389527E-01 -1.615526188627E-01 -3.420117457973E-01
C9  9.645356065426E-02  7.274150407952E-02  2.489088936146E-01
C10 -9.645356065426E-02 -7.274150407952E-02 -2.489088936146E-01
C11  1.185310735448E-01  1.835099742783E-01  1.829847638290E-01
C12 -1.185310735448E-01 -1.835099742783E-01 -1.829847638290E-01
C13  6.055278980919E-02  9.525223686840E-02  9.143664753351E-02
C14 -6.055278980919E-02 -9.525223686840E-02 -9.143664753351E-02
C15  8.196058461852E-02  2.062111406363E-01  2.437791976656E-02
C16 -8.196058461852E-02 -2.062111406363E-01 -2.437791976656E-02
C17 -2.406359297767E-02 -1.176974522327E-01  6.619645048328E-02
C18  2.406359297767E-02  1.176974522327E-01 -6.619645048328E-02
C19 -4.506520684169E-02 -2.289327446037E-01  1.342053237612E-01
C20  4.506520684169E-02  2.289327446037E-01 -1.342053237612E-01
C21  1.234537199476E-02 -1.401839560284E-01  2.237270300198E-01
C22 -1.234537199476E-02  1.401839560284E-01 -2.237270300198E-01
H23  1.760393028372E-01  1.179912496053E-01  4.756347881528E-01
H24 -1.760393028372E-01 -1.179912496053E-01 -4.756347881528E-01
H25 -7.065037762855E-02 -4.117162929840E-01  2.743667753156E-01
H26  7.065037762855E-02  4.117162929840E-01 -2.743667753156E-01
H27  3.259062871614E-02 -2.486799023275E-01  4.323006746750E-01
H28 -3.259062871614E-02  2.486799023275E-01 -4.323006746750E-01
H29  2.156390374981E-01  3.216926875250E-01  3.602847525979E-01
H30 -2.156390374981E-01 -3.216926875250E-01 -3.602847525979E-01
H31  1.813857158406E-01  3.427452625055E-01  2.017383519624E-01
H32 -1.813857158406E-01 -3.427452625055E-01 -2.017383519624E-01
H33  1.449923058911E-01  3.653050586156E-01  4.311536341098E-02
H34 -1.449923058911E-01 -3.653050586156E-01 -4.311536341098E-02
H35 -1.082608601036E-01 -3.879428445926E-01  1.153811897113E-01
H36  1.082608601036E-01  3.879428445926E-01 -1.153811897113E-01
C37 -4.405031433415E-01 -4.238457455037E-01  3.993216733934E-01
C38  4.405031433415E-01  4.238457455037E-01 -3.993216733934E-01
C39 -4.981666890631E-01 -3.165668826617E-01  3.267533115800E-01
C40  4.981666890631E-01  3.165668826617E-01 -3.267533115800E-01
C41 -4.815003780397E-01 -4.115867313655E-01  2.414340761949E-01
C42  4.815003780397E-01  4.115867313655E-01 -2.414340761949E-01
C43  4.615809864514E-01 -3.056469088162E-01  1.666299920691E-01
C44 -4.615809864514E-01  3.056469088162E-01 -1.666299920691E-01
C45  4.795044255706E-01 -3.993955708899E-01  8.294491245879E-02
C46 -4.795044255706E-01  3.993955708899E-01 -8.294491245879E-02
C47  4.228817402069E-01 -2.928860022512E-01  7.171243295336E-03
C48 -4.228817402069E-01  2.928860022512E-01 -7.171243295336E-03
C49 -4.412630140252E-01  3.865789820906E-01  7.550996283439E-02
C50  4.412630140252E-01 -3.865789820906E-01 -7.550996283439E-02
C51 -3.840019781252E-01  2.803267606729E-01  1.524242975015E-01
C52  3.840019781252E-01 -2.803267606729E-01 -1.524242975015E-01
C53 -4.018767308726E-01  3.748042460546E-01  2.341432601383E-01
C54  4.018767308726E-01 -3.748042460546E-01 -2.341432601383E-01
C55 -3.436863296323E-01  2.684382581716E-01  3.126404357667E-01
C56  3.436863296323E-01 -2.684382581716E-01 -3.126404357667E-01
C57 -3.623711980190E-01  3.654485638273E-01  3.921158849206E-01
C58  3.623711980190E-01 -3.654485638273E-01 -3.921158849206E-01
H59 -4.534599357661E-01 -3.493960069604E-01  4.634662732874E-01
H60  4.534599357661E-01  3.493960069604E-01 -4.634662732874E-01
H61  4.427564364524E-01 -1.566441766298E-01  3.323217317205E-01
H62 -4.427564364524E-01  1.566441766298E-01 -3.323217317205E-01
H63  4.024893722689E-01 -1.456787450685E-01  1.722519753503E-01
H64 -4.024893722689E-01  1.456787450685E-01 -1.722519753503E-01
H65  3.636471375971E-01 -1.330326456400E-01  1.279752883104E-02
H66 -3.636471375971E-01  1.330326456400E-01 -1.279752883104E-02
H67 -3.242471597160E-01  1.207365798521E-01  1.469824840257E-01
H68  3.242471597160E-01 -1.207365798521E-01 -1.469824840257E-01
H69 -2.842361415487E-01  1.088316640354E-01  3.071810625636E-01
H70  2.842361415487E-01 -1.088316640354E-01 -3.071810625636E-01
H71 -3.179848053896E-01  2.835089153142E-01  4.510029845211E-01
H72  3.179848053896E-01 -2.835089153142E-01 -4.510029845211E-01


#===END

data_OPT_STEP_43

_symmetry_space_group_name_H-M 'P 1'
_cell_length_a      8.36238887
_cell_length_b      6.15740897
_cell_length_c     15.85582402
_cell_angle_alpha   98.873095
_cell_angle_beta  108.265099
_cell_angle_gamma   87.624016

loop_
_atom_site_label
_atom_site_fract_x
_atom_site_fract_y
_atom_site_fract_z
C1  1.298357111332E-01  4.754371927745E-02  4.054644699780E-01
C2 -1.298357111332E-01 -4.754371927745E-02 -4.054644699780E-01
C3 -1.024672886927E-02 -2.523022371599E-01  2.912756151765E-01
C4  1.024672886927E-02  2.523022371599E-01 -2.912756151765E-01
C5  4.733409676017E-02 -1.621405628362E-01  3.793149237715E-01
C6 -4.733409676017E-02  1.621405628362E-01 -3.793149237715E-01
C7  1.526857600921E-01  1.602740620327E-01  3.427412219791E-01
C8 -1.526857600921E-01 -1.602740620327E-01 -3.427412219791E-01
C9  9.515829612884E-02  7.199687175576E-02  2.491352943806E-01
C10 -9.515829612884E-02 -7.199687175576E-02 -2.491352943806E-01
C11  1.177739956615E-01  1.826106261736E-01  1.839894651044E-01
C12 -1.177739956615E-01 -1.826106261736E-01 -1.839894651044E-01
C13  6.015716204602E-02  9.473884799177E-02  9.192972522665E-02
C14 -6.015716204602E-02 -9.473884799177E-02 -9.192972522665E-02
C15  8.221280421099E-02  2.055398658260E-01  2.569015410835E-02
C16 -8.221280421099E-02 -2.055398658260E-01 -2.569015410835E-02
C17 -2.461883454090E-02 -1.174799294972E-01  6.539120084599E-02
C18  2.461883454090E-02  1.174799294972E-01 -6.539120084599E-02
C19 -4.621592283356E-02 -2.285829420006E-01  1.326060580024E-01
C20  4.621592283356E-02  2.285829420006E-01 -1.326060580024E-01
C21  1.096318728338E-02 -1.403089067520E-01  2.226435854388E-01
C22 -1.096318728338E-02  1.403089067520E-01 -2.226435854388E-01
H23  1.743011915662E-01  1.163205021258E-01  4.760299307744E-01
H24 -1.743011915662E-01 -1.163205021258E-01 -4.760299307744E-01
H25 -7.282167687183E-02 -4.111567215665E-01  2.714955089575E-01
H26  7.282167687183E-02  4.111567215665E-01 -2.714955089575E-01
H27  3.035457213086E-02 -2.492327248580E-01  4.303825429480E-01
H28 -3.035457213086E-02  2.492327248580E-01 -4.303825429480E-01
H29  2.141395964963E-01  3.200232345240E-01  3.619890308962E-01
H30 -2.141395964963E-01 -3.200232345240E-01 -3.619890308962E-01
H31  1.809455168505E-01  3.412583878746E-01  2.037702285890E-01
H32 -1.809455168505E-01 -3.412583878746E-01 -2.037702285890E-01
H33  1.454449954838E-01  3.641126913408E-01  4.544552217174E-02
H34 -1.454449954838E-01 -3.641126913408E-01 -4.544552217174E-02
H35 -1.093354054762E-01 -3.872298378821E-01  1.128087905144E-01
H36  1.093354054762E-01  3.872298378821E-01 -1.128087905144E-01
C37 -4.419820938340E-01 -4.260834551945E-01  3.987640784943E-01
C38  4.419820938340E-01  4.260834551945E-01 -3.987640784943E-01
C39 -4.991880332244E-01 -3.185792315095E-01  3.263089558259E-01
C40  4.991880332244E-01  3.185792315095E-01 -3.263089558259E-01
C41 -4.825786650825E-01 -4.131169277338E-01  2.410516050336E-01
C42  4.825786650825E-01  4.131169277338E-01 -2.410516050336E-01
C43  4.610272885884E-01 -3.069363172170E-01  1.663588722677E-01
C44 -4.610272885884E-01  3.069363172170E-01 -1.663588722677E-01
C45  4.791723326561E-01 -4.001007563170E-01  8.280390551410E-02
C46 -4.791723326561E-01  4.001007563170E-01 -8.280390551410E-02
C47  4.231466781919E-01 -2.933318523688E-01  7.167294733901E-03
C48 -4.231466781919E-01  2.933318523688E-01 -7.167294733901E-03
C49 -4.418443297641E-01  3.863536525464E-01  7.537700749668E-02
C50  4.418443297641E-01 -3.863536525464E-01 -7.537700749668E-02
C51 -3.853555202334E-01  2.797743481765E-01  1.520930819123E-01
C52  3.853555202334E-01 -2.797743481765E-01 -1.520930819123E-01
C53 -4.035163228850E-01  3.735469154111E-01  2.337082419655E-01
C54  4.035163228850E-01 -3.735469154111E-01 -2.337082419655E-01
C55 -3.457774662052E-01  2.669863646623E-01  3.120654018299E-01
C56  3.457774662052E-01 -2.669863646623E-01 -3.120654018299E-01
C57 -3.644132283211E-01  3.634576518982E-01  3.914988891916E-01
C58  3.644132283211E-01 -3.634576518982E-01 -3.914988891916E-01
H59 -4.543931790369E-01 -3.517757036564E-01  4.629718036936E-01
H60  4.543931790369E-01  3.517757036564E-01 -4.629718036936E-01
H61  4.423527924695E-01 -1.587857554710E-01  3.319564715798E-01
H62 -4.423527924695E-01  1.587857554710E-01 -3.319564715798E-01
H63  4.022462567719E-01 -1.472665136164E-01  1.720016688989E-01
H64 -4.022462567719E-01  1.472665136164E-01 -1.720016688989E-01
H65  3.641776353205E-01 -1.337832524308E-01  1.279694299103E-02
H66 -3.641776353205E-01  1.337832524308E-01 -1.279694299103E-02
H67 -3.260197923835E-01  1.203886155072E-01  1.466210998375E-01
H68  3.260197923835E-01 -1.203886155072E-01 -1.466210998375E-01
H69 -2.865568457157E-01  1.076780779458E-01  3.065946134436E-01
H70  2.865568457157E-01 -1.076780779458E-01 -3.065946134436E-01
H71 -3.201538301475E-01  2.813821385333E-01  4.503183009921E-01
H72  3.201538301475E-01 -2.813821385333E-01 -4.503183009921E-01


#===END

data_OPT_STEP_44

_symmetry_space_group_name_H-M 'P 1'
_cell_length_a      8.35641331
_cell_length_b      6.14806188
_cell_length_c     15.83264951
_cell_angle_alpha   98.730348
_cell_angle_beta  107.618216
_cell_angle_gamma   87.730694

loop_
_atom_site_label
_atom_site_fract_x
_atom_site_fract_y
_atom_site_fract_z
C1  1.310289547770E-01  4.867157004334E-02  4.053944287816E-01
C2 -1.310289547770E-01 -4.867157004334E-02 -4.053944287816E-01
C3 -8.521728118824E-03 -2.518224397077E-01  2.924592955296E-01
C4  8.521728118824E-03  2.518224397077E-01 -2.924592955296E-01
C5  4.879910655454E-02 -1.611595121406E-01  3.801098089283E-01
C6 -4.879910655454E-02  1.611595121406E-01 -3.801098089283E-01
C7  1.535379709848E-01  1.613786488776E-01  3.422251830715E-01
C8 -1.535379709848E-01 -1.613786488776E-01 -3.422251830715E-01
C9  9.608449447689E-02  7.267911545415E-02  2.489668580459E-01
C10 -9.608449447689E-02 -7.267911545415E-02 -2.489668580459E-01
C11  1.179755142395E-01  1.833851998942E-01  1.832973694029E-01
C12 -1.179755142395E-01 -1.833851998942E-01 -1.832973694029E-01
C13  6.021961817950E-02  9.517963695669E-02  9.158269928358E-02
C14 -6.021961817950E-02 -9.517963695669E-02 -9.158269928358E-02
C15  8.195951593970E-02  2.056898515211E-01  2.480694115758E-02
C16 -8.195951593970E-02 -2.056898515211E-01 -2.480694115758E-02
C17 -2.416992477828E-02 -1.173604940701E-01  6.591838646428E-02
C18  2.416992477828E-02  1.173604940701E-01 -6.591838646428E-02
C19 -4.521789467180E-02 -2.283641073759E-01  1.336555765361E-01
C20  4.521789467180E-02  2.283641073759E-01 -1.336555765361E-01
C21  1.235872168132E-02 -1.399797481881E-01  2.233504643936E-01
C22 -1.235872168132E-02  1.399797481881E-01 -2.233504643936E-01
H23  1.755654393687E-01  1.175936999338E-01  4.756920540665E-01
H24 -1.755654393687E-01 -1.175936999338E-01 -4.756920540665E-01
H25 -7.109551473517E-02 -4.107107742768E-01  2.732995458842E-01
H26  7.109551473517E-02  4.107107742768E-01 -2.732995458842E-01
H27  3.187610663959E-02 -2.479031750703E-01  4.315624058589E-01
H28 -3.187610663959E-02  2.479031750703E-01 -4.315624058589E-01
H29  2.148719368214E-01  3.212194135079E-01  3.609237982657E-01
H30 -2.148719368214E-01 -3.212194135079E-01 -3.609237982657E-01
H31  1.807689622829E-01  3.422959913175E-01  2.023810171559E-01
H32 -1.807689622829E-01 -3.422959913175E-01 -2.023810171559E-01
H33  1.446774921797E-01  3.646256776600E-01  4.385229113706E-02
H34 -1.446774921797E-01 -3.646256776600E-01 -4.385229113706E-02
H35 -1.079047194403E-01 -3.873137065362E-01  1.145299522240E-01
H36  1.079047194403E-01  3.873137065362E-01 -1.145299522240E-01
C37 -4.408176552830E-01 -4.245178787159E-01  3.991530289204E-01
C38  4.408176552830E-01  4.245178787159E-01 -3.991530289204E-01
C39 -4.977683874227E-01 -3.169340751874E-01  3.268429946794E-01
C40  4.977683874227E-01  3.169340751874E-01 -3.268429946794E-01
C41 -4.812649115392E-01 -4.117707665539E-01  2.414557891417E-01
C42  4.812649115392E-01  4.117707665539E-01 -2.414557891417E-01
C43  4.619453026343E-01 -3.058792516824E-01  1.667849369439E-01
C44 -4.619453026343E-01  3.058792516824E-01 -1.667849369439E-01
C45  4.795477890882E-01 -3.995925759752E-01  8.299244997970E-02
C46 -4.795477890882E-01  3.995925759752E-01 -8.299244997970E-02
C47  4.228486008927E-01 -2.932849109402E-01  7.312231779185E-03
C48 -4.228486008927E-01  2.932849109402E-01 -7.312231779185E-03
C49 -4.410572977660E-01  3.868664116173E-01  7.543595377189E-02
C50  4.410572977660E-01 -3.868664116173E-01 -7.543595377189E-02
C51 -3.840837051486E-01  2.806255971931E-01  1.521845227023E-01
C52  3.840837051486E-01 -2.806255971931E-01 -1.521845227023E-01
C53 -4.022835869874E-01  3.746592268324E-01  2.338829761246E-01
C54  4.022835869874E-01 -3.746592268324E-01 -2.338829761246E-01
C55 -3.447391406042E-01  2.680920597222E-01  3.121280195114E-01
C56  3.447391406042E-01 -2.680920597222E-01 -3.121280195114E-01
C57 -3.635468229189E-01  3.647079178483E-01  3.916181129035E-01
C58  3.635468229189E-01 -3.647079178483E-01 -3.916181129035E-01
H59 -4.538611650422E-01 -3.503745045355E-01  4.632759862625E-01
H60  4.538611650422E-01  3.503745045355E-01 -4.632759862625E-01
H61  4.435850898301E-01 -1.571018077410E-01  3.326161749236E-01
H62 -4.435850898301E-01  1.571018077410E-01 -3.326161749236E-01
H63  4.028763553432E-01 -1.461997546144E-01  1.725220383038E-01
H64 -4.028763553432E-01  1.461997546144E-01 -1.725220383038E-01
H65  3.637039768675E-01 -1.336750729085E-01  1.305987634378E-02
H66 -3.637039768675E-01  1.336750729085E-01 -1.305987634378E-02
H67 -3.252974895400E-01  1.208140865494E-01  1.464496808875E-01
H68  3.252974895400E-01 -1.208140865494E-01 -1.464496808875E-01
H69 -2.857421461072E-01  1.085343716387E-01  3.064614093803E-01
H70  2.857421461072E-01 -1.085343716387E-01 -3.064614093803E-01
H71 -3.195259673712E-01  2.825532384221E-01  4.503104394964E-01
H72  3.195259673712E-01 -2.825532384221E-01 -4.503104394964E-01


#===END

data_OPT_STEP_45

_symmetry_space_group_name_H-M 'P 1'
_cell_length_a      8.35881293
_cell_length_b      6.15753307
_cell_length_c     15.85058106
_cell_angle_alpha   98.859132
_cell_angle_beta  108.099876
_cell_angle_gamma   87.636888

loop_
_atom_site_label
_atom_site_fract_x
_atom_site_fract_y
_atom_site_fract_z
C1  1.300671579000E-01  4.795713313379E-02  4.053946075369E-01
C2 -1.300671579000E-01 -4.795713313379E-02 -4.053946075369E-01
C3 -9.777815287349E-03 -2.520482916568E-01  2.915047785239E-01
C4  9.777815287349E-03  2.520482916568E-01 -2.915047785239E-01
C5  4.761994265512E-02 -1.616937208174E-01  3.794360749281E-01
C6 -4.761994265512E-02  1.616937208174E-01 -3.794360749281E-01
C7  1.527552070637E-01  1.607250165188E-01  3.425914204118E-01
C8 -1.527552070637E-01 -1.607250165188E-01 -3.425914204118E-01
C9  9.533797740512E-02  7.228896677532E-02  2.490746753885E-01
C10 -9.533797740512E-02 -7.228896677532E-02 -2.490746753885E-01
C11  1.176471401248E-01  1.829593519891E-01  1.838081195707E-01
C12 -1.176471401248E-01 -1.829593519891E-01 -1.838081195707E-01
C13  6.004450046018E-02  9.494298172595E-02  9.183166021194E-02
C14 -6.004450046018E-02 -9.494298172595E-02 -9.183166021194E-02
C15  8.214794064300E-02  2.055147305862E-01  2.548101953023E-02
C16 -8.214794064300E-02 -2.055147305862E-01 -2.548101953023E-02
C17 -2.454210122785E-02 -1.173536554525E-01  6.550566391505E-02
C18  2.454210122785E-02  1.173536554525E-01 -6.550566391505E-02
C19 -4.599435727402E-02 -2.283804824672E-01  1.328310469574E-01
C20  4.599435727402E-02  2.283804824672E-01 -1.328310469574E-01
C21  1.136936953835E-02 -1.401286905905E-01  2.227863954542E-01
C22 -1.136936953835E-02  1.401286905905E-01 -2.227863954542E-01
H23  1.746187520829E-01  1.166939768426E-01  4.758981610827E-01
H24 -1.746187520829E-01 -1.166939768426E-01 -4.758981610827E-01
H25 -7.250011486661E-02 -4.107845848406E-01  2.718454860619E-01
H26  7.250011486661E-02  4.107845848406E-01 -2.718454860619E-01
H27  3.062309342582E-02 -2.485646102121E-01  4.305981373073E-01
H28 -3.062309342582E-02  2.485646102121E-01 -4.305981373073E-01
H29  2.141634907309E-01  3.204708509263E-01  3.617599462537E-01
H30 -2.141634907309E-01 -3.204708509263E-01 -3.617599462537E-01
H31  1.806742323959E-01  3.416714936515E-01  2.034199059159E-01
H32 -1.806742323959E-01 -3.416714936515E-01 -2.034199059159E-01
H33  1.450861877397E-01  3.642538063052E-01  4.505438274113E-02
H34 -1.450861877397E-01 -3.642538063052E-01 -4.505438274113E-02
H35 -1.088174564743E-01 -3.871867500248E-01  1.132016055949E-01
H36  1.088174564743E-01  3.871867500248E-01 -1.132016055949E-01
C37 -4.416769309249E-01 -4.256779238593E-01  3.988362113948E-01
C38  4.416769309249E-01  4.256779238593E-01 -3.988362113948E-01
C39 -4.986541053201E-01 -3.180704525882E-01  3.264841288804E-01
C40  4.986541053201E-01  3.180704525882E-01 -3.264841288804E-01
C41 -4.821379406751E-01 -4.126926399434E-01  2.411716590555E-01
C42  4.821379406751E-01  4.126926399434E-01 -2.411716590555E-01
C43  4.613211567880E-01 -3.066337629707E-01  1.665021734942E-01
C44 -4.613211567880E-01  3.066337629707E-01 -1.665021734942E-01
C45  4.792105928062E-01 -3.999988580908E-01  8.285019515130E-02
C46 -4.792105928062E-01  3.999988580908E-01 -8.285019515130E-02
C47  4.229738035262E-01 -2.934087393417E-01  7.220059434934E-03
C48 -4.229738035262E-01  2.934087393417E-01 -7.220059434934E-03
C49 -4.415324899337E-01  3.865871081949E-01  7.538685686484E-02
C50  4.415324899337E-01 -3.865871081949E-01 -7.538685686484E-02
C51 -3.849225114463E-01  2.801312051958E-01  1.520849823833E-01
C52  3.849225114463E-01 -2.801312051958E-01 -1.520849823833E-01
C53 -4.032241540908E-01  3.738849508504E-01  2.337043835302E-01
C54  4.032241540908E-01 -3.738849508504E-01 -2.337043835302E-01
C55 -3.457267839582E-01  2.672493722003E-01  3.119604912411E-01
C56  3.457267839582E-01 -2.672493722003E-01 -3.119604912411E-01
C57 -3.644561373197E-01  3.636864671887E-01  3.914040944025E-01
C58  3.644561373197E-01 -3.636864671887E-01 -3.914040944025E-01
H59 -4.543281986017E-01 -3.515017180149E-01  4.629961378008E-01
H60  4.543281986017E-01  3.515017180149E-01 -4.629961378008E-01
H61  4.429058514427E-01 -1.582668816505E-01  3.322068216792E-01
H62 -4.429058514427E-01  1.582668816505E-01 -3.322068216792E-01
H63  4.023948386376E-01 -1.470275155047E-01  1.721793567711E-01
H64 -4.023948386376E-01  1.470275155047E-01 -1.721793567711E-01
H65  3.639402679644E-01 -1.338806302239E-01  1.289672396643E-02
H66 -3.639402679644E-01  1.338806302239E-01 -1.289672396643E-02
H67 -3.260993009450E-01  1.204694416018E-01  1.464514923237E-01
H68  3.260993009450E-01 -1.204694416018E-01 -1.464514923237E-01
H69 -2.867074401413E-01  1.078315853204E-01  3.063826933715E-01
H70  2.867074401413E-01 -1.078315853204E-01 -3.063826933715E-01
H71 -3.203710165866E-01  2.815049344983E-01  4.501278003505E-01
H72  3.203710165866E-01 -2.815049344983E-01 -4.501278003505E-01


#===END

data_OPT_STEP_46

_symmetry_space_group_name_H-M 'P 1'
_cell_length_a      8.35135835
_cell_length_b      6.15744698
_cell_length_c     15.84520667
_cell_angle_alpha   98.827137
_cell_angle_beta  107.927286
_cell_angle_gamma   87.664184

loop_
_atom_site_label
_atom_site_fract_x
_atom_site_fract_y
_atom_site_fract_z
C1  1.302567356212E-01  4.813963522072E-02  4.052960181611E-01
C2 -1.302567356212E-01 -4.813963522072E-02 -4.052960181611E-01
C3 -9.593061478640E-03 -2.518954099459E-01  2.917055964524E-01
C4  9.593061478640E-03  2.518954099459E-01 -2.917055964524E-01
C5  4.781454429104E-02 -1.614974315659E-01  3.795388490220E-01
C6 -4.781454429104E-02  1.614974315659E-01 -3.795388490220E-01
C7  1.530207662445E-01  1.608075429581E-01  3.424048943061E-01
C8 -1.530207662445E-01 -1.608075429581E-01 -3.424048943061E-01
C9  9.544377117185E-02  7.242664950025E-02  2.489784982811E-01
C10 -9.544377117185E-02 -7.242664950025E-02 -2.489784982811E-01
C11  1.176882456112E-01  1.830504091867E-01  1.836065300935E-01
C12 -1.176882456112E-01 -1.830504091867E-01 -1.836065300935E-01
C13  6.015109762543E-02  9.491029268578E-02  9.173427930885E-02
C14 -6.015109762543E-02 -9.491029268578E-02 -9.173427930885E-02
C15  8.202326751349E-02  2.055631497517E-01  2.526753207441E-02
C16 -8.202326751349E-02 -2.055631497517E-01 -2.526753207441E-02
C17 -2.425810464002E-02 -1.174479279225E-01  6.562846616371E-02
C18  2.425810464002E-02  1.174479279225E-01 -6.562846616371E-02
C19 -4.578339647639E-02 -2.283533698208E-01  1.330409353586E-01
C20  4.578339647639E-02  2.283533698208E-01 -1.330409353586E-01
C21  1.153003281227E-02 -1.400096940231E-01  2.228973056236E-01
C22 -1.153003281227E-02  1.400096940231E-01 -2.228973056236E-01
H23  1.747844847005E-01  1.169043307532E-01  4.757249316304E-01
H24 -1.747844847005E-01 -1.169043307532E-01 -4.757249316304E-01
H25 -7.251741360268E-02 -4.104898515041E-01  2.721738256916E-01
H26  7.251741360268E-02  4.104898515041E-01 -2.721738256916E-01
H27  3.086658798759E-02 -2.483195646420E-01  4.307825401235E-01
H28 -3.086658798759E-02  2.483195646420E-01 -4.307825401235E-01
H29  2.142518834132E-01  3.206532457867E-01  3.614191121639E-01
H30 -2.142518834132E-01 -3.206532457867E-01 -3.614191121639E-01
H31  1.807024532174E-01  3.417514682597E-01  2.030524576539E-01
H32 -1.807024532174E-01 -3.417514682597E-01 -2.030524576539E-01
H33  1.450076965388E-01  3.642598766244E-01  4.468682783013E-02
H34 -1.450076965388E-01 -3.642598766244E-01 -4.468682783013E-02
H35 -1.084028325633E-01 -3.872756379289E-01  1.135800371079E-01
H36  1.084028325633E-01  3.872756379289E-01 -1.135800371079E-01
C37 -4.416705480789E-01 -4.252618206689E-01  3.988575580856E-01
C38  4.416705480789E-01  4.252618206689E-01 -3.988575580856E-01
C39 -4.987353707128E-01 -3.177962407156E-01  3.265216892595E-01
C40  4.987353707128E-01  3.177962407156E-01 -3.265216892595E-01
C41 -4.820047646323E-01 -4.123680510093E-01  2.412254159315E-01
C42  4.820047646323E-01  4.123680510093E-01 -2.412254159315E-01
C43  4.612864280513E-01 -3.065001914670E-01  1.665571359221E-01
C44 -4.612864280513E-01  3.065001914670E-01 -1.665571359221E-01
C45  4.791624754093E-01 -3.999564761412E-01  8.287416663104E-02
C46 -4.791624754093E-01  3.999564761412E-01 -8.287416663104E-02
C47  4.229735749314E-01 -2.934346582033E-01  7.282293036444E-03
C48 -4.229735749314E-01  2.934346582033E-01 -7.282293036444E-03
C49 -4.416304567870E-01  3.866330632019E-01  7.533686104493E-02
C50  4.416304567870E-01 -3.866330632019E-01 -7.533686104493E-02
C51 -3.849879195547E-01  2.802967796978E-01  1.520098317957E-01
C52  3.849879195547E-01 -2.802967796978E-01 -1.520098317957E-01
C53 -4.031404035190E-01  3.741952461032E-01  2.336830522866E-01
C54  4.031404035190E-01 -3.741952461032E-01 -2.336830522866E-01
C55 -3.454011318562E-01  2.677801409903E-01  3.119564898293E-01
C56  3.454011318562E-01 -2.677801409903E-01 -3.119564898293E-01
C57 -3.641791257168E-01  3.642787142973E-01  3.914194483134E-01
C58  3.641791257168E-01 -3.642787142973E-01 -3.914194483134E-01
H59 -4.543825277810E-01 -3.510429903822E-01  4.630239452172E-01
H60  4.543825277810E-01  3.510429903822E-01 -4.630239452172E-01
H61  4.428604462300E-01 -1.579913814133E-01  3.322977858082E-01
H62 -4.428604462300E-01  1.579913814133E-01 -3.322977858082E-01
H63  4.024871657757E-01 -1.468455899160E-01  1.723036915667E-01
H64 -4.024871657757E-01  1.468455899160E-01 -1.723036915667E-01
H65  3.639467998001E-01 -1.339141273271E-01  1.300623162571E-02
H66 -3.639467998001E-01  1.339141273271E-01 -1.300623162571E-02
H67 -3.260252510124E-01  1.207205349301E-01  1.463565186222E-01
H68  3.260252510124E-01 -1.207205349301E-01 -1.463565186222E-01
H69 -2.864305094645E-01  1.083375478387E-01  3.063280632863E-01
H70  2.864305094645E-01 -1.083375478387E-01 -3.063280632863E-01
H71 -3.201542094800E-01  2.821158533137E-01  4.501066882598E-01
H72  3.201542094800E-01 -2.821158533137E-01 -4.501066882598E-01


#===END

data_OPT_STEP_47

_symmetry_space_group_name_H-M 'P 1'
_cell_length_a      8.35678809
_cell_length_b      6.15763080
_cell_length_c     15.84984693
_cell_angle_alpha   98.855771
_cell_angle_beta  108.059935
_cell_angle_gamma   87.641940

loop_
_atom_site_label
_atom_site_fract_x
_atom_site_fract_y
_atom_site_fract_z
C1  1.300834825229E-01  4.800589318577E-02  4.053343777899E-01
C2 -1.300834825229E-01 -4.800589318577E-02 -4.053343777899E-01
C3 -9.816189618257E-03 -2.519901562104E-01  2.915051371296E-01
C4  9.816189618257E-03  2.519901562104E-01 -2.915051371296E-01
C5  4.759706548725E-02 -1.616280635209E-01  3.794119613845E-01
C6 -4.759706548725E-02  1.616280635209E-01 -3.794119613845E-01
C7  1.528570734071E-01  1.607185646978E-01  3.425259602059E-01
C8 -1.528570734071E-01 -1.607185646978E-01 -3.425259602059E-01
C9  9.532214981477E-02  7.234985596569E-02  2.490300632509E-01
C10 -9.532214981477E-02 -7.234985596569E-02 -2.490300632509E-01
C11  1.176514562051E-01  1.829842722164E-01  1.837505930155E-01
C12 -1.176514562051E-01 -1.829842722164E-01 -1.837505930155E-01
C13  6.011026065230E-02  9.489671080936E-02  9.180477664306E-02
C14 -6.011026065230E-02 -9.489671080936E-02 -9.180477664306E-02
C15  8.209988867571E-02  2.055429857795E-01  2.543600079870E-02
C16 -8.209988867571E-02 -2.055429857795E-01 -2.543600079870E-02
C17 -2.439232171386E-02 -1.174308781237E-01  6.552966324014E-02
C18  2.439232171386E-02  1.174308781237E-01 -6.552966324014E-02
C19 -4.595652699817E-02 -2.283810119538E-01  1.328543525783E-01
C20  4.595652699817E-02  2.283810119538E-01 -1.328543525783E-01
C21  1.134766764313E-02 -1.400704751970E-01  2.227823100655E-01
C22 -1.134766764313E-02  1.400704751970E-01 -2.227823100655E-01
H23  1.746291413507E-01  1.167425597670E-01  4.758189224423E-01
H24 -1.746291413507E-01 -1.167425597670E-01 -4.758189224423E-01
H25 -7.270238330424E-02 -4.106273851791E-01  2.718589514881E-01
H26  7.270238330424E-02  4.106273851791E-01 -2.718589514881E-01
H27  3.062992808843E-02 -2.484849642241E-01  4.305891835423E-01
H28 -3.062992808843E-02  2.484849642241E-01 -4.305891835423E-01
H29  2.141568863941E-01  3.205409524747E-01  3.616633443294E-01
H30 -2.141568863941E-01 -3.205409524747E-01 -3.616633443294E-01
H31  1.807050851188E-01  3.416794780582E-01  2.033274396784E-01
H32 -1.807050851188E-01 -3.416794780582E-01 -2.033274396784E-01
H33  1.451078756749E-01  3.642415892601E-01  4.498324428331E-02
H34 -1.451078756749E-01 -3.642415892601E-01 -4.498324428331E-02
H35 -1.086635022754E-01 -3.872662851102E-01  1.132654418132E-01
H36  1.086635022754E-01  3.872662851102E-01 -1.132654418132E-01
C37 -4.417669790248E-01 -4.255813028744E-01  3.988060841605E-01
C38  4.417669790248E-01  4.255813028744E-01 -3.988060841605E-01
C39 -4.987916646301E-01 -3.180371615518E-01  3.264595663872E-01
C40  4.987916646302E-01  3.180371615518E-01 -3.264595663872E-01
C41 -4.821260219130E-01 -4.125955672692E-01  2.411720956640E-01
C42  4.821260219130E-01  4.125955672692E-01 -2.411720956640E-01
C43  4.612450989791E-01 -3.066279455280E-01  1.664997739185E-01
C44 -4.612450989791E-01  3.066279455280E-01 -1.664997739185E-01
C45  4.791495292004E-01 -4.000154975530E-01  8.284669741379E-02
C46 -4.791495292004E-01  4.000154975530E-01 -8.284669741379E-02
C47  4.229929676780E-01 -2.934216635132E-01  7.244656401070E-03
C48 -4.229929676780E-01  2.934216635132E-01 -7.244656401070E-03
C49 -4.416476332817E-01  3.865677644655E-01  7.535142615326E-02
C50  4.416476332817E-01 -3.865677644655E-01 -7.535142615326E-02
C51 -3.850527352538E-01  2.801489836957E-01  1.520296444266E-01
C52  3.850527352538E-01 -2.801489836957E-01 -1.520296444266E-01
C53 -4.032577614069E-01  3.739672757698E-01  2.336735868776E-01
C54  4.032577614069E-01 -3.739672757698E-01 -2.336735868776E-01
C55 -3.456079143839E-01  2.674442848658E-01  3.119437294471E-01
C56  3.456079143839E-01 -2.674442848658E-01 -3.119437294471E-01
C57 -3.643803729099E-01  3.638916882523E-01  3.913879774931E-01
C58  3.643803729099E-01 -3.638916882523E-01 -3.913879774931E-01
H59 -4.543840070926E-01 -3.513582515097E-01  4.629775257803E-01
H60  4.543840070926E-01  3.513582515097E-01 -4.629775257803E-01
H61  4.428461228035E-01 -1.582034803779E-01  3.322114148199E-01
H62 -4.428461228035E-01  1.582034803779E-01 -3.322114148199E-01
H63  4.024175310587E-01 -1.469842554309E-01  1.722099139299E-01
H64 -4.024175310587E-01  1.469842554309E-01 -1.722099139299E-01
H65  3.639905274040E-01 -1.338865879763E-01  1.294121257763E-02
H66 -3.639905274040E-01  1.338865879763E-01 -1.294121257763E-02
H67 -3.261304467350E-01  1.205463097249E-01  1.464015293750E-01
H68  3.261304467350E-01 -1.205463097249E-01 -1.464015293750E-01
H69 -2.866185388597E-01  1.080094001032E-01  3.063492606343E-01
H70  2.866185388597E-01 -1.080094001032E-01 -3.063492606343E-01
H71 -3.203221403858E-01  2.817061530472E-01  4.500928950550E-01
H72  3.203221403858E-01 -2.817061530472E-01 -4.500928950550E-01


#===END

data_OPT_STEP_48

_symmetry_space_group_name_H-M 'P 1'
_cell_length_a      8.35524833
_cell_length_b      6.15704181
_cell_length_c     15.84929141
_cell_angle_alpha   98.850235
_cell_angle_beta  108.018442
_cell_angle_gamma   87.651896

loop_
_atom_site_label
_atom_site_fract_x
_atom_site_fract_y
_atom_site_fract_z
C1  1.300935931571E-01  4.807703652133E-02  4.052932829209E-01
C2 -1.300935931571E-01 -4.807703652133E-02 -4.052932829209E-01
C3 -9.801542317308E-03 -2.519944959991E-01  2.915327312363E-01
C4  9.801542317308E-03  2.519944959991E-01 -2.915327312363E-01
C5  4.762055032160E-02 -1.615967376675E-01  3.794208497702E-01
C6 -4.762055032160E-02  1.615967376675E-01 -3.794208497702E-01
C7  1.528315741397E-01  1.607961948746E-01  3.424559349373E-01
C8 -1.528315741397E-01 -1.607961948746E-01 -3.424559349373E-01
C9  9.525229982005E-02  7.242853841840E-02  2.489831371562E-01
C10 -9.525229982005E-02 -7.242853841840E-02 -2.489831371562E-01
C11  1.176160299059E-01  1.830252822408E-01  1.836867230320E-01
C12 -1.176160299059E-01 -1.830252822408E-01 -1.836867230320E-01
C13  6.003940084510E-02  9.495183744002E-02  9.176812374332E-02
C14 -6.003940084510E-02 -9.495183744002E-02 -9.176812374332E-02
C15  8.204535426002E-02  2.055963792193E-01  2.539707019994E-02
C16 -8.204535426002E-02 -2.055963792193E-01 -2.539707019994E-02
C17 -2.443726337252E-02 -1.173919370359E-01  6.554164025196E-02
C18  2.443726337252E-02  1.173919370359E-01 -6.554164025196E-02
C19 -4.595687859468E-02 -2.283846422444E-01  1.328842539151E-01
C20  4.595687859468E-02  2.283846422444E-01 -1.328842539151E-01
C21  1.131088149402E-02 -1.400301838595E-01  2.227870463087E-01
C22 -1.131088149402E-02  1.400301838595E-01 -2.227870463087E-01
H23  1.746934961378E-01  1.167972968309E-01  4.757620955261E-01
H24 -1.746934961378E-01 -1.167972968309E-01 -4.757620955261E-01
H25 -7.263661472407E-02 -4.106730681065E-01  2.719243568278E-01
H26  7.263661472407E-02  4.106730681065E-01 -2.719243568278E-01
H27  3.077876607792E-02 -2.485284882880E-01  4.306200067339E-01
H28 -3.077876607792E-02  2.485284882880E-01 -4.306200067339E-01
H29  2.141409909651E-01  3.206020656305E-01  3.615479357085E-01
H30 -2.141409909651E-01 -3.206020656305E-01 -3.615479357085E-01
H31  1.806343058357E-01  3.417618035900E-01  2.032277356789E-01
H32 -1.806343058357E-01 -3.417618035900E-01 -2.032277356789E-01
H33  1.451448877869E-01  3.642479589540E-01  4.492032689609E-02
H34 -1.451448877869E-01 -3.642479589540E-01 -4.492032689609E-02
H35 -1.087874451146E-01 -3.872110045842E-01  1.133185086593E-01
H36  1.087874451146E-01  3.872110045842E-01 -1.133185086593E-01
C37 -4.418050243107E-01 -4.254822708022E-01  3.987975096237E-01
C38  4.418050243107E-01  4.254822708022E-01 -3.987975096237E-01
C39 -4.988488790865E-01 -3.179693991534E-01  3.264544726706E-01
C40  4.988488790865E-01  3.179693991534E-01 -3.264544726706E-01
C41 -4.822101342920E-01 -4.125782885338E-01  2.411557687398E-01
C42  4.822101342920E-01  4.125782885338E-01 -2.411557687398E-01
C43  4.612101209206E-01 -3.066178480482E-01  1.665016221260E-01
C44 -4.612101209206E-01  3.066178480482E-01 -1.665016221260E-01
C45  4.791731199374E-01 -3.999971859893E-01  8.285908656772E-02
C46 -4.791731199374E-01  3.999971859893E-01 -8.285908656772E-02
C47  4.229864601966E-01 -2.934437962349E-01  7.261053134153E-03
C48 -4.229864601966E-01  2.934437962349E-01 -7.261053134153E-03
C49 -4.416078838892E-01  3.866124320195E-01  7.534932554369E-02
C50  4.416078838892E-01 -3.866124320195E-01 -7.534932554369E-02
C51 -3.851261193237E-01  2.801619363993E-01  1.519878595049E-01
C52  3.851261193237E-01 -2.801619363993E-01 -1.519878595049E-01
C53 -4.033461552412E-01  3.739759896862E-01  2.336432369225E-01
C54  4.033461552412E-01 -3.739759896862E-01 -2.336432369225E-01
C55 -3.457101645675E-01  2.674675332644E-01  3.118977821823E-01
C56  3.457101645675E-01 -2.674675332644E-01 -3.118977821823E-01
C57 -3.643780091836E-01  3.639984545234E-01  3.913736762497E-01
C58  3.643780091836E-01 -3.639984545234E-01 -3.913736762497E-01
H59 -4.542831229725E-01 -3.511720897127E-01  4.630065674641E-01
H60  4.542831229725E-01  3.511720897127E-01 -4.630065674641E-01
H61  4.428044492428E-01 -1.581235921735E-01  3.322190830749E-01
H62 -4.428044492428E-01  1.581235921735E-01 -3.322190830749E-01
H63  4.023525152055E-01 -1.469925448694E-01  1.722196582909E-01
H64 -4.023525152055E-01  1.469925448694E-01 -1.722196582909E-01
H65  3.640373715471E-01 -1.338856679225E-01  1.298033165577E-02
H66 -3.640373715471E-01  1.338856679225E-01 -1.298033165577E-02
H67 -3.261970471724E-01  1.205492424638E-01  1.463512364964E-01
H68  3.261970471724E-01 -1.205492424638E-01 -1.463512364964E-01
H69 -2.865324709386E-01  1.081211486740E-01  3.063308981260E-01
H70  2.865324709386E-01 -1.081211486740E-01 -3.063308981260E-01
H71 -3.201966352381E-01  2.818862377756E-01  4.500971315300E-01
H72  3.201966352381E-01 -2.818862377756E-01 -4.500971315300E-01


#===END

data_OPT_STEP_49

_symmetry_space_group_name_H-M 'P 1'
_cell_length_a      8.35332746
_cell_length_b      6.15623304
_cell_length_c     15.84832037
_cell_angle_alpha   98.842224
_cell_angle_beta  107.931430
_cell_angle_gamma   87.678839

loop_
_atom_site_label
_atom_site_fract_x
_atom_site_fract_y
_atom_site_fract_z
C1  1.301762696621E-01  4.808911153700E-02  4.052397718801E-01
C2 -1.301762696621E-01 -4.808911153700E-02 -4.052397718801E-01
C3 -9.886713305377E-03 -2.518888032399E-01  2.915925782743E-01
C4  9.886713305378E-03  2.518888032399E-01 -2.915925782743E-01
C5  4.765726531360E-02 -1.615705780321E-01  3.794464970816E-01
C6 -4.765726531360E-02  1.615705780321E-01 -3.794464970816E-01
C7  1.528100375034E-01  1.608901685908E-01  3.423624712991E-01
C8 -1.528100375034E-01 -1.608901685908E-01 -3.423624712991E-01
C9  9.514061944333E-02  7.258359534270E-02  2.489240494499E-01
C10 -9.514061944333E-02 -7.258359534270E-02 -2.489240494499E-01
C11  1.175168475188E-01  1.831537014913E-01  1.835904457600E-01
C12 -1.175168475188E-01 -1.831537014913E-01 -1.835904457600E-01
C13  6.002293342792E-02  9.499998643698E-02  9.171918522208E-02
C14 -6.002293342792E-02 -9.499998643698E-02 -9.171918522208E-02
C15  8.203161826679E-02  2.056280434864E-01  2.531404596605E-02
C16 -8.203161826679E-02 -2.056280434864E-01 -2.531404596605E-02
C17 -2.444378031978E-02 -1.173651646219E-01  6.557767252494E-02
C18  2.444378031978E-02  1.173651646219E-01 -6.557767252494E-02
C19 -4.600594416219E-02 -2.283117512575E-01  1.329565980733E-01
C20  4.600594416219E-02  2.283117512575E-01 -1.329565980733E-01
C21  1.121326886723E-02 -1.399023775235E-01  2.228105914993E-01
C22 -1.121326886723E-02  1.399023775235E-01 -2.228105914993E-01
H23  1.748857992475E-01  1.167436870010E-01  4.756814783990E-01
H24 -1.748857992475E-01 -1.167436870010E-01 -4.756814783990E-01
H25 -7.257041758292E-02 -4.106669782339E-01  2.720550813824E-01
H26  7.257041758292E-02  4.106669782339E-01 -2.720550813824E-01
H27  3.086844548057E-02 -2.485496502074E-01  4.306716039608E-01
H28 -3.086844548057E-02  2.485496502074E-01 -4.306716039608E-01
H29  2.142161660572E-01  3.206349138425E-01  3.614133151325E-01
H30 -2.142161660572E-01 -3.206349138425E-01 -3.614133151325E-01
H31  1.806277781157E-01  3.418388300656E-01  2.030713382198E-01
H32 -1.806277781157E-01 -3.418388300656E-01 -2.030713382198E-01
H33  1.450184062838E-01  3.643657308452E-01  4.476504466650E-02
H34 -1.450184062838E-01 -3.643657308452E-01 -4.476504466650E-02
H35 -1.086940746137E-01 -3.872381703940E-01  1.134696767088E-01
H36  1.086940746137E-01  3.872381703940E-01 -1.134696767088E-01
C37 -4.416745869874E-01 -4.253008349451E-01  3.988204928053E-01
C38  4.416745869874E-01  4.253008349451E-01 -3.988204928053E-01
C39 -4.988295955140E-01 -3.178741906273E-01  3.264777270955E-01
C40  4.988295955140E-01  3.178741906273E-01 -3.264777270955E-01
C41 -4.822525326442E-01 -4.125413255596E-01  2.411506264108E-01
C42  4.822525326442E-01  4.125413255596E-01 -2.411506264108E-01
C43  4.611766073957E-01 -3.066097450124E-01  1.665224621469E-01
C44 -4.611766073957E-01  3.066097450124E-01 -1.665224621469E-01
C45  4.791952873828E-01 -3.999738553739E-01  8.288017164378E-02
C46 -4.791952873828E-01  3.999738553739E-01 -8.288017164378E-02
C47  4.230226785226E-01 -2.934364043823E-01  7.309754434252E-03
C48 -4.230226785226E-01  2.934364043823E-01 -7.309754434252E-03
C49 -4.416007132364E-01  3.866341589580E-01  7.532510489070E-02
C50  4.416007132364E-01 -3.866341589580E-01 -7.532510489070E-02
C51 -3.850644968593E-01  2.802365725608E-01  1.519456694466E-01
C52  3.850644968593E-01 -2.802365725608E-01 -1.519456694466E-01
C53 -4.032892354321E-01  3.740701535926E-01  2.336180149829E-01
C54  4.032892354321E-01 -3.740701535926E-01 -2.336180149829E-01
C55 -3.455214730797E-01  2.676453645978E-01  3.118721404096E-01
C56  3.455214730797E-01 -2.676453645978E-01 -3.118721404096E-01
C57 -3.642159454688E-01  3.641914448090E-01  3.913631932115E-01
C58  3.642159454688E-01 -3.641914448090E-01 -3.913631932115E-01
H59 -4.540710901121E-01 -3.509457156225E-01  4.630683926458E-01
H60  4.540710901121E-01  3.509457156225E-01 -4.630683926458E-01
H61  4.427259061340E-01 -1.580770770366E-01  3.322496432306E-01
H62 -4.427259061340E-01  1.580770770366E-01 -3.322496432306E-01
H63  4.023099789872E-01 -1.469960146231E-01  1.722680894276E-01
H64 -4.023099789872E-01  1.469960146231E-01 -1.722680894276E-01
H65  3.640611022220E-01 -1.338950523627E-01  1.305524355823E-02
H66 -3.640611022220E-01  1.338950523627E-01 -1.305524355823E-02
H67 -3.260456296691E-01  1.206668542280E-01  1.463034356384E-01
H68  3.260456296691E-01 -1.206668542280E-01 -1.463034356384E-01
H69 -2.863397879145E-01  1.082996475727E-01  3.062816199711E-01
H70  2.863397879145E-01 -1.082996475727E-01 -3.062816199711E-01
H71 -3.199354702134E-01  2.821478634572E-01  4.500877794743E-01
H72  3.199354702134E-01 -2.821478634572E-01 -4.500877794743E-01


#===END

data_OPT_STEP_50

_symmetry_space_group_name_H-M 'P 1'
_cell_length_a      8.35473402
_cell_length_b      6.15696281
_cell_length_c     15.84988183
_cell_angle_alpha   98.849925
_cell_angle_beta  107.998540
_cell_angle_gamma   87.658981

loop_
_atom_site_label
_atom_site_fract_x
_atom_site_fract_y
_atom_site_fract_z
C1  1.301118826443E-01  4.807188130704E-02  4.052747801649E-01
C2 -1.301118826443E-01 -4.807188130704E-02 -4.052747801649E-01
C3 -9.885562392836E-03 -2.519169245831E-01  2.915323040538E-01
C4  9.885562392836E-03  2.519169245831E-01 -2.915323040538E-01
C5  4.760125489762E-02 -1.615742238605E-01  3.794143487758E-01
C6 -4.760125489762E-02  1.615742238605E-01 -3.794143487758E-01
C7  1.528031231088E-01  1.608289568187E-01  3.424310105568E-01
C8 -1.528031231088E-01 -1.608289568187E-01 -3.424310105568E-01
C9  9.518804917922E-02  7.249802752160E-02  2.489633167247E-01
C10 -9.518804917922E-02 -7.249802752160E-02 -2.489633167247E-01
C11  1.175729002957E-01  1.830705834900E-01  1.836626732401E-01
C12 -1.175729002957E-01 -1.830705834900E-01 -1.836626732401E-01
C13  6.005143065353E-02  9.495416397724E-02  9.175584828107E-02
C14 -6.005143065353E-02 -9.495416397724E-02 -9.175584828107E-02
C15  8.205810972040E-02  2.055900402685E-01  2.538020362608E-02
C16 -8.205810972040E-02 -2.055900402685E-01 -2.538020362608E-02
C17 -2.443852569833E-02 -1.173761561923E-01  6.554635077098E-02
C18  2.443852569833E-02  1.173761561923E-01 -6.554635077098E-02
C19 -4.599425098303E-02 -2.283326809481E-01  1.328945368756E-01
C20  4.599425098303E-02  2.283326809481E-01 -1.328945368756E-01
C21  1.124310389133E-02 -1.399545706075E-01  2.227829157091E-01
C22 -1.124310389133E-02  1.399545706075E-01 -2.227829157091E-01
H23  1.747613897493E-01  1.167559288405E-01  4.757381187389E-01
H24 -1.747613897493E-01 -1.167559288405E-01 -4.757381187389E-01
H25 -7.259832288588E-02 -4.106625779149E-01  2.719466056882E-01
H26  7.259832288588E-02  4.106625779149E-01 -2.719466056882E-01
H27  3.076993806331E-02 -2.485173205793E-01  4.306149245378E-01
H28 -3.076993806331E-02  2.485173205793E-01 -4.306149245378E-01
H29  2.141871308958E-01  3.205819717779E-01  3.615271544948E-01
H30 -2.141871308958E-01 -3.205819717779E-01 -3.615271544948E-01
H31  1.806666600180E-01  3.417525318561E-01  2.031944899850E-01
H32 -1.806666600180E-01 -3.417525318561E-01 -2.031944899850E-01
H33  1.450936967135E-01  3.642797361973E-01  4.488573416592E-02
H34 -1.450936967135E-01 -3.642797361973E-01 -4.488573416592E-02
H35 -1.087330977751E-01 -3.872099807831E-01  1.133539277848E-01
H36  1.087330977751E-01  3.872099807831E-01 -1.133539277848E-01
C37 -4.417673114035E-01 -4.254323359301E-01  3.987958825519E-01
C38  4.417673114035E-01  4.254323359301E-01 -3.987958825519E-01
C39 -4.988555224692E-01 -3.179468987391E-01  3.264499269416E-01
C40  4.988555224692E-01  3.179468987391E-01 -3.264499269416E-01
C41 -4.822623012436E-01 -4.125884688659E-01  2.411390977851E-01
C42  4.822623012436E-01  4.125884688659E-01 -2.411390977851E-01
C43  4.611873749695E-01 -3.066238122870E-01  1.664969614438E-01
C44 -4.611873749695E-01  3.066238122870E-01 -1.664969614438E-01
C45  4.791919316802E-01 -3.999850035677E-01  8.286428095743E-02
C46 -4.791919316802E-01  3.999850035677E-01 -8.286428095743E-02
C47  4.230285774557E-01 -2.934264258063E-01  7.278480816088E-03
C48 -4.230285774557E-01  2.934264258063E-01 -7.278480816088E-03
C49 -4.416129213359E-01  3.866129636748E-01  7.534094272800E-02
C50  4.416129213359E-01 -3.866129636748E-01 -7.534094272800E-02
C51 -3.851132795946E-01  2.801803024773E-01  1.519727018763E-01
C52  3.851132795946E-01 -2.801803024773E-01 -1.519727018763E-01
C53 -4.033429143931E-01  3.739954858357E-01  2.336297382271E-01
C54  4.033429143931E-01 -3.739954858357E-01 -2.336297382271E-01
C55 -3.456433553009E-01  2.675193027999E-01  3.118870746200E-01
C56  3.456433553009E-01 -2.675193027999E-01 -3.118870746200E-01
C57 -3.643527056397E-01  3.640364276401E-01  3.913607616872E-01
C58  3.643527056397E-01 -3.640364276401E-01 -3.913607616872E-01
H59 -4.541792709290E-01 -3.511064512126E-01  4.630294008445E-01
H60  4.541792709290E-01  3.511064512126E-01 -4.630294008445E-01
H61  4.427504259443E-01 -1.581237615326E-01  3.322091047296E-01
H62 -4.427504259443E-01  1.581237615326E-01 -3.322091047296E-01
H63  4.023257835488E-01 -1.470052368804E-01  1.722192355380E-01
H64 -4.023257835488E-01  1.470052368804E-01 -1.722192355380E-01
H65  3.640676823714E-01 -1.338814743564E-01  1.299933565233E-02
H66 -3.640676823714E-01  1.338814743564E-01 -1.299933565233E-02
H67 -3.261278001695E-01  1.205934457374E-01  1.463474307789E-01
H68  3.261278001695E-01 -1.205934457374E-01 -1.463474307789E-01
H69 -2.864859394220E-01  1.081614155643E-01  3.063145352008E-01
H70  2.864859394220E-01 -1.081614155643E-01 -3.063145352008E-01
H71 -3.201038678066E-01  2.819628466258E-01  4.500900892165E-01
H72  3.201038678066E-01 -2.819628466258E-01 -4.500900892165E-01


#===END

data_OPT_STEP_51

_symmetry_space_group_name_H-M 'P 1'
_cell_length_a      8.35513840
_cell_length_b      6.15704684
_cell_length_c     15.84965956
_cell_angle_alpha   98.850506
_cell_angle_beta  108.014670
_cell_angle_gamma   87.653427

loop_
_atom_site_label
_atom_site_fract_x
_atom_site_fract_y
_atom_site_fract_z
C1  1.301019282787E-01  4.807049489650E-02  4.052909139722E-01
C2 -1.301019282787E-01 -4.807049489650E-02 -4.052909139722E-01
C3 -9.837556063020E-03 -2.519602101361E-01  2.915305908190E-01
C4  9.837556063020E-03  2.519602101361E-01 -2.915305908190E-01
C5  4.761266795797E-02 -1.615876749350E-01  3.794184875854E-01
C6 -4.761266795797E-02  1.615876749350E-01 -3.794184875854E-01
C7  1.528181829468E-01  1.608052069472E-01  3.424520955369E-01
C8 -1.528181829468E-01 -1.608052069472E-01 -3.424520955369E-01
C9  9.523209828500E-02  7.244857304038E-02  2.489787799078E-01
C10 -9.523209828500E-02 -7.244857304038E-02 -2.489787799078E-01
C11  1.176013769439E-01  1.830374642860E-01  1.836827365389E-01
C12 -1.176013769439E-01 -1.830374642860E-01 -1.836827365389E-01
C13  6.005474833766E-02  9.494325379814E-02  9.176618824545E-02
C14 -6.005474833766E-02 -9.494325379814E-02 -9.176618824545E-02
C15  8.205868144301E-02  2.055868294520E-01  2.539465694964E-02
C16 -8.205868144301E-02 -2.055868294520E-01 -2.539465694964E-02
C17 -2.443534920636E-02 -1.173870843830E-01  6.554164104198E-02
C18  2.443534920636E-02  1.173870843830E-01 -6.554164104198E-02
C19 -4.597114155175E-02 -2.283627705111E-01  1.328856262995E-01
C20  4.597114155175E-02  2.283627705111E-01 -1.328856262995E-01
C21  1.128992856337E-02 -1.400038254912E-01  2.227849807132E-01
C22 -1.128992856337E-02  1.400038254912E-01 -2.227849807132E-01
H23  1.747112084173E-01  1.167832129021E-01  4.757588512755E-01
H24 -1.747112084173E-01 -1.167832129021E-01 -4.757588512755E-01
H25 -7.260418963110E-02 -4.106732315062E-01  2.719314538357E-01
H26  7.260418963110E-02  4.106732315062E-01 -2.719314538357E-01
H27  3.076894494255E-02 -2.485165900591E-01  4.306168175144E-01
H28 -3.076894494255E-02  2.485165900591E-01 -4.306168175144E-01
H29  2.141644291764E-01  3.205846680807E-01  3.615502567572E-01
H30 -2.141644291764E-01 -3.205846680807E-01 -3.615502567572E-01
H31  1.806513336993E-01  3.417476658518E-01  2.032235827812E-01
H32 -1.806513336993E-01 -3.417476658518E-01 -2.032235827812E-01
H33  1.451248890578E-01  3.642549320933E-01  4.491378226002E-02
H34 -1.451248890578E-01 -3.642549320933E-01 -4.491378226002E-02
H35 -1.087609713669E-01 -3.872073781343E-01  1.133282520770E-01
H36  1.087609713669E-01  3.872073781343E-01 -1.133282520770E-01
C37 -4.417984860767E-01 -4.254709373567E-01  3.987953955837E-01
C38  4.417984860767E-01  4.254709373567E-01 -3.987953955837E-01
C39 -4.988494531978E-01 -3.179592182405E-01  3.264515356080E-01
C40  4.988494531978E-01  3.179592182405E-01 -3.264515356080E-01
C41 -4.822366908835E-01 -4.125864116262E-01  2.411472139229E-01
C42  4.822366908835E-01  4.125864116262E-01 -2.411472139229E-01
C43  4.612024739428E-01 -3.066177982133E-01  1.664976490062E-01
C44 -4.612024739428E-01  3.066177982133E-01 -1.664976490062E-01
C45  4.791848209667E-01 -3.999891686670E-01  8.286094402329E-02
C46 -4.791848209667E-01  3.999891686670E-01 -8.286094402329E-02
C47  4.230090681081E-01 -2.934308925568E-01  7.266662389186E-03
C48 -4.230090681081E-01  2.934308925568E-01 -7.266662389186E-03
C49 -4.416102585065E-01  3.866096156729E-01  7.534762544679E-02
C50  4.416102585065E-01 -3.866096156729E-01 -7.534762544679E-02
C51 -3.851251779264E-01  2.801620124671E-01  1.519841809979E-01
C52  3.851251779264E-01 -2.801620124671E-01 -1.519841809979E-01
C53 -4.033487408988E-01  3.739772156073E-01  2.336394064208E-01
C54  4.033487408988E-01 -3.739772156073E-01 -2.336394064208E-01
C55 -3.456846347121E-01  2.674795237772E-01  3.118968250765E-01
C56  3.456846347121E-01 -2.674795237772E-01 -3.118968250765E-01
C57 -3.643874292689E-01  3.639962905719E-01  3.913679100085E-01
C58  3.643874292689E-01 -3.639962905719E-01 -3.913679100085E-01
H59 -4.542424727939E-01 -3.511575534081E-01  4.630170000762E-01
H60  4.542424727939E-01  3.511575534081E-01 -4.630170000762E-01
H61  4.427842608261E-01 -1.581203022863E-01  3.322118514291E-01
H62 -4.427842608261E-01  1.581203022863E-01 -3.322118514291E-01
H63  4.023433925536E-01 -1.469942585751E-01  1.722154990960E-01
H64 -4.023433925536E-01  1.469942585751E-01 -1.722154990960E-01
H65  3.640478455576E-01 -1.338816055346E-01  1.298255342659E-02
H66 -3.640478455576E-01  1.338816055346E-01 -1.298255342659E-02
H67 -3.261670390525E-01  1.205603322004E-01  1.463567993448E-01
H68  3.261670390525E-01 -1.205603322004E-01 -1.463567993448E-01
H69 -2.865267213727E-01  1.081214182619E-01  3.063286458662E-01
H70  2.865267213727E-01 -1.081214182619E-01 -3.063286458662E-01
H71 -3.201692005274E-01  2.819049416222E-01  4.500961883264E-01
H72  3.201692005274E-01 -2.819049416222E-01 -4.500961883264E-01


#===END

data_OPT_STEP_52

_symmetry_space_group_name_H-M 'P 1'
_cell_length_a      8.35458653
_cell_length_b      6.15732332
_cell_length_c     15.84969638
_cell_angle_alpha   98.850925
_cell_angle_beta  108.011960
_cell_angle_gamma   87.655222

loop_
_atom_site_label
_atom_site_fract_x
_atom_site_fract_y
_atom_site_fract_z
C1  1.301110402601E-01  4.806899632953E-02  4.052920556776E-01
C2 -1.301110402601E-01 -4.806899632953E-02 -4.052920556776E-01
C3 -9.829526267376E-03 -2.519490005782E-01  2.915350632067E-01
C4  9.829526267377E-03  2.519490005782E-01 -2.915350632067E-01
C5  4.761715367458E-02 -1.615809375643E-01  3.794212381336E-01
C6 -4.761715367458E-02  1.615809375643E-01 -3.794212381336E-01
C7  1.528224482540E-01  1.608006887283E-01  3.424518940856E-01
C8 -1.528224482540E-01 -1.608006887283E-01 -3.424518940856E-01
C9  9.524648490882E-02  7.244148798104E-02  2.489785023236E-01
C10 -9.524648490882E-02 -7.244148798104E-02 -2.489785023236E-01
C11  1.176052899235E-01  1.830376055909E-01  1.836808031250E-01
C12 -1.176052899235E-01 -1.830376055909E-01 -1.836808031250E-01
C13  6.006775673759E-02  9.493345835608E-02  9.176500802768E-02
C14 -6.006775673759E-02 -9.493345835608E-02 -9.176500802768E-02
C15  8.206492931739E-02  2.055805125824E-01  2.539271331052E-02
C16 -8.206492931739E-02 -2.055805125824E-01 -2.539271331052E-02
C17 -2.443355913500E-02 -1.173846392074E-01  6.554252491810E-02
C18  2.443355913500E-02  1.173846392074E-01 -6.554252491810E-02
C19 -4.596065184332E-02 -2.283592981072E-01  1.328887913471E-01
C20  4.596065184332E-02  2.283592981072E-01 -1.328887913471E-01
C21  1.130553295301E-02 -1.400041189904E-01  2.227876702621E-01
C22 -1.130553295301E-02  1.400041189904E-01 -2.227876702621E-01
H23  1.746988221586E-01  1.168026252471E-01  4.757575986381E-01
H24 -1.746988221586E-01 -1.168026252471E-01 -4.757575986381E-01
H25 -7.260768847019E-02 -4.106513440922E-01  2.719393280873E-01
H26  7.260768847019E-02  4.106513440922E-01 -2.719393280873E-01
H27  3.076358215351E-02 -2.485033693227E-01  4.306188213691E-01
H28 -3.076358215351E-02  2.485033693227E-01 -4.306188213691E-01
H29  2.141570987980E-01  3.205860107161E-01  3.615508375774E-01
H30 -2.141570987980E-01 -3.205860107161E-01 -3.615508375774E-01
H31  1.806559058451E-01  3.417429077977E-01  2.032179170582E-01
H32 -1.806559058451E-01 -3.417429077977E-01 -2.032179170582E-01
H33  1.451198808787E-01  3.642518059444E-01  4.490921872213E-02
H34 -1.451198808787E-01 -3.642518059444E-01 -4.490921872213E-02
H35 -1.087612907049E-01 -3.871913803817E-01  1.133348069171E-01
H36  1.087612907049E-01  3.871913803817E-01 -1.133348069171E-01
C37 -4.418013240030E-01 -4.254683613964E-01  3.987944488129E-01
C38  4.418013240030E-01  4.254683613964E-01 -3.987944488129E-01
C39 -4.988484379267E-01 -3.179599931510E-01  3.264534590570E-01
C40  4.988484379267E-01  3.179599931510E-01 -3.264534590570E-01
C41 -4.822350480294E-01 -4.125849362608E-01  2.411483608355E-01
C42  4.822350480294E-01  4.125849362608E-01 -2.411483608355E-01
C43  4.612020770584E-01 -3.066227884905E-01  1.665001005743E-01
C44 -4.612020770584E-01  3.066227884905E-01 -1.665001005743E-01
C45  4.791822121209E-01 -3.999939666709E-01  8.286125540677E-02
C46 -4.791822121209E-01  3.999939666709E-01 -8.286125540677E-02
C47  4.230207383895E-01 -2.934343277399E-01  7.270999581676E-03
C48 -4.230207383895E-01  2.934343277399E-01 -7.270999581676E-03
C49 -4.416224467630E-01  3.866105380757E-01  7.534318342190E-02
C50  4.416224467630E-01 -3.866105380757E-01 -7.534318342190E-02
C51 -3.851404836876E-01  2.801696198677E-01  1.519784871407E-01
C52  3.851404836876E-01 -2.801696198677E-01 -1.519784871407E-01
C53 -4.033562574451E-01  3.739864222586E-01  2.336359358756E-01
C54  4.033562574451E-01 -3.739864222586E-01 -2.336359358756E-01
C55 -3.457054832110E-01  2.674898699943E-01  3.118895412857E-01
C56  3.457054832110E-01 -2.674898699943E-01 -3.118895412857E-01
C57 -3.643945475613E-01  3.640062636200E-01  3.913629619785E-01
C58  3.643945475613E-01 -3.640062636200E-01 -3.913629619785E-01
H59 -4.542289581079E-01 -3.511538999576E-01  4.630200740480E-01
H60  4.542289581079E-01  3.511538999576E-01 -4.630200740480E-01
H61  4.427722999177E-01 -1.581343158880E-01  3.322136216107E-01
H62 -4.427722999177E-01  1.581343158880E-01 -3.322136216107E-01
H63  4.023387391487E-01 -1.470086884170E-01  1.722159400437E-01
H64 -4.023387391487E-01  1.470086884170E-01 -1.722159400437E-01
H65  3.640530276784E-01 -1.338943168778E-01  1.298308717231E-02
H66 -3.640530276784E-01  1.338943168778E-01 -1.298308717231E-02
H67 -3.261710462411E-01  1.205806749499E-01  1.463542734271E-01
H68  3.261710462411E-01 -1.205806749499E-01 -1.463542734271E-01
H69 -2.865320368667E-01  1.081471881272E-01  3.063246510859E-01
H70  2.865320368667E-01 -1.081471881272E-01 -3.063246510859E-01
H71 -3.201629904973E-01  2.819265060564E-01  4.500917213994E-01
H72  3.201629904973E-01 -2.819265060564E-01 -4.500917213994E-01


#===END

data_OPT_STEP_53

_symmetry_space_group_name_H-M 'P 1'
_cell_length_a      8.35345246
_cell_length_b      6.15788095
_cell_length_c     15.84966366
_cell_angle_alpha   98.851735
_cell_angle_beta  108.006306
_cell_angle_gamma   87.659052

loop_
_atom_site_label
_atom_site_fract_x
_atom_site_fract_y
_atom_site_fract_z
C1  1.301054614443E-01  4.808463606058E-02  4.052892523378E-01
C2 -1.301054614443E-01 -4.808463606058E-02 -4.052892523378E-01
C3 -9.819822407291E-03 -2.519303287806E-01  2.915394773598E-01
C4  9.819822407291E-03  2.519303287806E-01 -2.915394773598E-01
C5  4.762615896388E-02 -1.615700409468E-01  3.794229004708E-01
C6 -4.762615896388E-02  1.615700409468E-01 -3.794229004708E-01
C7  1.528244873803E-01  1.607990474433E-01  3.424474939726E-01
C8 -1.528244873803E-01 -1.607990474433E-01 -3.424474939726E-01
C9  9.526498155327E-02  7.243441342593E-02  2.489757813135E-01
C10 -9.526498155327E-02 -7.243441342593E-02 -2.489757813135E-01
C11  1.176338537365E-01  1.830200557768E-01  1.836774820146E-01
C12 -1.176338537365E-01 -1.830200557768E-01 -1.836774820146E-01
C13  6.008179318284E-02  9.492270481961E-02  9.176260819634E-02
C14 -6.008179318284E-02 -9.492270481961E-02 -9.176260819634E-02
C15  8.206874915475E-02  2.055725787977E-01  2.538891599144E-02
C16 -8.206874915475E-02 -2.055725787977E-01 -2.538891599144E-02
C17 -2.442805502753E-02 -1.173821246164E-01  6.554444711392E-02
C18  2.442805502753E-02  1.173821246164E-01 -6.554444711392E-02
C19 -4.595121526462E-02 -2.283484635786E-01  1.328925705734E-01
C20  4.595121526462E-02  2.283484635786E-01 -1.328925705734E-01
C21  1.131984853445E-02 -1.399981961302E-01  2.227897804706E-01
C22 -1.131984853445E-02  1.399981961302E-01 -2.227897804706E-01
H23  1.746860271987E-01  1.168336446205E-01  4.757521058719E-01
H24 -1.746860271987E-01 -1.168336446205E-01 -4.757521058719E-01
H25 -7.259917748137E-02 -4.106268496596E-01  2.719504370368E-01
H26  7.259917748137E-02  4.106268496596E-01 -2.719504370368E-01
H27  3.075782661826E-02 -2.484821132598E-01  4.306193961119E-01
H28 -3.075782661826E-02  2.484821132598E-01 -4.306193961119E-01
H29  2.141515682138E-01  3.205843403680E-01  3.615465957613E-01
H30 -2.141515682138E-01 -3.205843403680E-01 -3.615465957613E-01
H31  1.806582331246E-01  3.417375747928E-01  2.032069315596E-01
H32 -1.806582331246E-01 -3.417375747928E-01 -2.032069315596E-01
H33  1.451302506256E-01  3.642325323627E-01  4.490243688622E-02
H34 -1.451302506256E-01 -3.642325323627E-01 -4.490243688622E-02
H35 -1.087614051729E-01 -3.871669520584E-01  1.133444420602E-01
H36  1.087614051729E-01  3.871669520584E-01 -1.133444420602E-01
C37 -4.417950435752E-01 -4.254522958332E-01  3.987957843557E-01
C38  4.417950435752E-01  4.254522958332E-01 -3.987957843557E-01
C39 -4.988542145764E-01 -3.179622613736E-01  3.264567608412E-01
C40  4.988542145764E-01  3.179622613736E-01 -3.264567608412E-01
C41 -4.822436407303E-01 -4.125847676979E-01  2.411490236176E-01
C42  4.822436407303E-01  4.125847676979E-01 -2.411490236176E-01
C43  4.611988707272E-01 -3.066314836637E-01  1.665049924538E-01
C44 -4.611988707272E-01  3.066314836637E-01 -1.665049924538E-01
C45  4.791744632929E-01 -4.000018785238E-01  8.286201583818E-02
C46 -4.791744632929E-01  4.000018785238E-01 -8.286201583818E-02
C47  4.230244505550E-01 -2.934505529523E-01  7.276213508698E-03
C48 -4.230244505550E-01  2.934505529523E-01 -7.276213508698E-03
C49 -4.416392282150E-01  3.866168172131E-01  7.533622493814E-02
C50  4.416392282150E-01 -3.866168172131E-01 -7.533622493814E-02
C51 -3.851587635649E-01  2.801901025697E-01  1.519695670054E-01
C52  3.851587635649E-01 -2.801901025697E-01 -1.519695670054E-01
C53 -4.033790506422E-01  3.740014321851E-01  2.336280640383E-01
C54  4.033790506422E-01 -3.740014321851E-01 -2.336280640383E-01
C55 -3.457292909362E-01  2.675185316896E-01  3.118787375845E-01
C56  3.457292909362E-01 -2.675185316896E-01 -3.118787375845E-01
C57 -3.644047591452E-01  3.640312899359E-01  3.913550946307E-01
C58  3.644047591452E-01 -3.640312899359E-01 -3.913550946307E-01
H59 -4.542026603646E-01 -3.511399213502E-01  4.630261241556E-01
H60  4.542026603646E-01  3.511399213502E-01 -4.630261241556E-01
H61  4.427501279756E-01 -1.581590162946E-01  3.322181574983E-01
H62 -4.427501279756E-01  1.581590162946E-01 -3.322181574983E-01
H63  4.023213879732E-01 -1.470387195190E-01  1.722171227470E-01
H64 -4.023213879732E-01  1.470387195190E-01 -1.722171227470E-01
H65  3.640647346163E-01 -1.339184226991E-01  1.298634763259E-02
H66 -3.640647346163E-01  1.339184226991E-01 -1.298634763259E-02
H67 -3.261864669743E-01  1.206167373231E-01  1.463465575524E-01
H68  3.261864669743E-01 -1.206167373231E-01 -1.463465575524E-01
H69 -2.865678345287E-01  1.081832138030E-01  3.063106136786E-01
H70  2.865678345287E-01 -1.081832138030E-01 -3.063106136786E-01
H71 -3.201516252392E-01  2.819743304754E-01  4.500840605327E-01
H72  3.201516252392E-01 -2.819743304754E-01 -4.500840605327E-01


#===END

data_OPT_STEP_54

_symmetry_space_group_name_H-M 'P 1'
_cell_length_a      8.35113652
_cell_length_b      6.15904637
_cell_length_c     15.84941752
_cell_angle_alpha   98.852917
_cell_angle_beta  107.994708
_cell_angle_gamma   87.665456

loop_
_atom_site_label
_atom_site_fract_x
_atom_site_fract_y
_atom_site_fract_z
C1  1.301113817763E-01  4.810477563693E-02  4.052830468741E-01
C2 -1.301113817763E-01 -4.810477563693E-02 -4.052830468741E-01
C3 -9.807868610736E-03 -2.518903320091E-01  2.915452798451E-01
C4  9.807868610736E-03  2.518903320091E-01 -2.915452798451E-01
C5  4.763520580294E-02 -1.615367548911E-01  3.794240988426E-01
C6 -4.763520580294E-02  1.615367548911E-01 -3.794240988426E-01
C7  1.528305277371E-01  1.608010201514E-01  3.424381543346E-01
C8 -1.528305277371E-01 -1.608010201514E-01 -3.424381543346E-01
C9  9.528584155653E-02  7.243248337863E-02  2.489705837463E-01
C10 -9.528584155653E-02 -7.243248337863E-02 -2.489705837463E-01
C11  1.176402777605E-01  1.830161875982E-01  1.836685620537E-01
C12 -1.176402777605E-01 -1.830161875982E-01 -1.836685620537E-01
C13  6.009071919442E-02  9.491397130620E-02  9.175732711257E-02
C14 -6.009071919442E-02 -9.491397130620E-02 -9.175732711257E-02
C15  8.206989111898E-02  2.055569094961E-01  2.538104369010E-02
C16 -8.206989111898E-02 -2.055569094961E-01 -2.538104369010E-02
C17 -2.442259380118E-02 -1.173701898959E-01  6.554820878258E-02
C18  2.442259380118E-02  1.173701898959E-01 -6.554820878258E-02
C19 -4.593500182362E-02 -2.283255838216E-01  1.328999967997E-01
C20  4.593500182362E-02  2.283255838216E-01 -1.328999967997E-01
C21  1.134352368112E-02 -1.399825458375E-01  2.227932221567E-01
C22 -1.134352368112E-02  1.399825458375E-01 -2.227932221567E-01
H23  1.746695065633E-01  1.168747057849E-01  4.757405611359E-01
H24 -1.746695065633E-01 -1.168747057849E-01 -4.757405611359E-01
H25 -7.259308613345E-02 -4.105700777418E-01  2.719645112445E-01
H26  7.259308613345E-02  4.105700777418E-01 -2.719645112445E-01
H27  3.074875845871E-02 -2.484326932095E-01  4.306198795089E-01
H28 -3.074875845871E-02  2.484326932095E-01 -4.306198795089E-01
H29  2.141490722543E-01  3.205777743595E-01  3.615334636726E-01
H30 -2.141490722543E-01 -3.205777743595E-01 -3.615334636726E-01
H31  1.806665253819E-01  3.417189685040E-01  2.031891889675E-01
H32 -1.806665253819E-01 -3.417189685040E-01 -2.031891889675E-01
H33  1.451249023241E-01  3.642073751828E-01  4.488746988842E-02
H34 -1.451249023241E-01 -3.642073751828E-01 -4.488746988842E-02
H35 -1.087544964155E-01 -3.871242630185E-01  1.133601158905E-01
H36  1.087544964155E-01  3.871242630185E-01 -1.133601158905E-01
C37 -4.417857536807E-01 -4.254229890402E-01  3.987980063263E-01
C38  4.417857536807E-01  4.254229890402E-01 -3.987980063263E-01
C39 -4.988641878512E-01 -3.179683532731E-01  3.264625504553E-01
C40  4.988641878512E-01  3.179683532731E-01 -3.264625504553E-01
C41 -4.822622170231E-01 -4.125869128490E-01  2.411491382301E-01
C42  4.822622170231E-01  4.125869128490E-01 -2.411491382301E-01
C43  4.611837479466E-01 -3.066559388602E-01  1.665114887088E-01
C44 -4.611837479466E-01  3.066559388602E-01 -1.665114887088E-01
C45  4.791628233832E-01 -4.000165347761E-01  8.286467138202E-02
C46 -4.791628233832E-01  4.000165347761E-01 -8.286467138202E-02
C47  4.230391954948E-01 -2.934773588058E-01  7.288543524238E-03
C48 -4.230391954948E-01  2.934773588058E-01 -7.288543524238E-03
C49 -4.416602425817E-01  3.866332597111E-01  7.532625430308E-02
C50  4.416602425817E-01 -3.866332597111E-01 -7.532625430308E-02
C51 -3.851963246794E-01  2.802251080804E-01  1.519518853300E-01
C52  3.851963246794E-01 -2.802251080804E-01 -1.519518853300E-01
C53 -4.034162383599E-01  3.740268991943E-01  2.336140910212E-01
C54  4.034162383599E-01 -3.740268991943E-01 -2.336140910212E-01
C55 -3.457692379599E-01  2.675699743958E-01  3.118586834712E-01
C56  3.457692379599E-01 -2.675699743958E-01 -3.118586834712E-01
C57 -3.644050992227E-01  3.640904081053E-01  3.913445813617E-01
C58  3.644050992227E-01 -3.640904081053E-01 -3.913445813617E-01
H59 -4.541743153971E-01 -3.511152305270E-01  4.630339431683E-01
H60  4.541743153971E-01  3.511152305270E-01 -4.630339431683E-01
H61  4.427295832730E-01 -1.581997824967E-01  3.322299470208E-01
H62 -4.427295832730E-01  1.581997824967E-01 -3.322299470208E-01
H63  4.023149633599E-01 -1.470871894186E-01  1.722283739085E-01
H64 -4.023149633599E-01  1.470871894186E-01 -1.722283739085E-01
H65  3.640736230851E-01 -1.339744308915E-01  1.299876790511E-02
H66 -3.640736230851E-01  1.339744308915E-01 -1.299876790511E-02
H67 -3.262260229083E-01  1.206786258251E-01  1.463247919586E-01
H68  3.262260229083E-01 -1.206786258251E-01 -1.463247919586E-01
H69 -2.866092774726E-01  1.082615330153E-01  3.062850201864E-01
H70  2.866092774726E-01 -1.082615330153E-01 -3.062850201864E-01
H71 -3.201334290537E-01  2.820651727038E-01  4.500712669492E-01
H72  3.201334290537E-01 -2.820651727038E-01 -4.500712669492E-01


#===END

data_OPT_STEP_55

_symmetry_space_group_name_H-M 'P 1'
_cell_length_a      8.34666780
_cell_length_b      6.16149212
_cell_length_c     15.84852174
_cell_angle_alpha   98.849539
_cell_angle_beta  107.970648
_cell_angle_gamma   87.671062

loop_
_atom_site_label
_atom_site_fract_x
_atom_site_fract_y
_atom_site_fract_z
C1  1.301181011302E-01  4.816198660755E-02  4.052788371062E-01
C2 -1.301181011302E-01 -4.816198660755E-02 -4.052788371062E-01
C3 -9.735236894088E-03 -2.518017111817E-01  2.915821132849E-01
C4  9.735236894088E-03  2.518017111817E-01 -2.915821132849E-01
C5  4.767658563420E-02 -1.614439789881E-01  3.794474813268E-01
C6 -4.767658563420E-02  1.614439789881E-01 -3.794474813268E-01
C7  1.528265076713E-01  1.608206336225E-01  3.424191387775E-01
C8 -1.528265076713E-01 -1.608206336225E-01 -3.424191387775E-01
C9  9.530355044854E-02  7.244861632492E-02  2.489627305022E-01
C10 -9.530355044854E-02 -7.244861632492E-02 -2.489627305022E-01
C11  1.176383139047E-01  1.829995727048E-01  1.836446308765E-01
C12 -1.176383139047E-01 -1.829995727048E-01 -1.836446308765E-01
C13  6.008582007909E-02  9.490379052331E-02  9.174450352761E-02
C14 -6.008582007909E-02 -9.490379052331E-02 -9.174450352761E-02
C15  8.203846415456E-02  2.055173061853E-01  2.535122240379E-02
C16 -8.203846415456E-02 -2.055173061853E-01 -2.535122240379E-02
C17 -2.439202189249E-02 -1.173373366482E-01  6.556559839032E-02
C18  2.439202189249E-02  1.173373366482E-01 -6.556559839032E-02
C19 -4.587593039398E-02 -2.282643366084E-01  1.329341239781E-01
C20  4.587593039398E-02  2.282643366084E-01 -1.329341239781E-01
C21  1.139979601717E-02 -1.399277853426E-01  2.228152017928E-01
C22 -1.139979601717E-02  1.399277853426E-01 -2.228152017928E-01
H23  1.746560312485E-01  1.169345443158E-01  4.757263381665E-01
H24 -1.746560312485E-01 -1.169345443158E-01 -4.757263381665E-01
H25 -7.251032468970E-02 -4.104402322510E-01  2.720222788315E-01
H26  7.251032468970E-02  4.104402322510E-01 -2.720222788315E-01
H27  3.078816814733E-02 -2.483143250189E-01  4.306514685303E-01
H28 -3.078816814733E-02  2.483143250189E-01 -4.306514685303E-01
H29  2.141177802725E-01  3.205700589525E-01  3.614947001165E-01
H30 -2.141177802725E-01 -3.205700589525E-01 -3.614947001165E-01
H31  1.806320433657E-01  3.416797069665E-01  2.031416692367E-01
H32 -1.806320433657E-01 -3.416797069665E-01 -2.031416692367E-01
H33  1.450756692232E-01  3.641336613958E-01  4.483490119974E-02
H34 -1.450756692232E-01 -3.641336613958E-01 -4.483490119974E-02
H35 -1.086682459791E-01 -3.870327167069E-01  1.134180935872E-01
H36  1.086682459791E-01  3.870327167069E-01 -1.134180935872E-01
C37 -4.417442030798E-01 -4.253848575818E-01  3.988100821841E-01
C38  4.417442030798E-01  4.253848575818E-01 -3.988100821841E-01
C39 -4.988135314689E-01 -3.179681629249E-01  3.264839202923E-01
C40  4.988135314689E-01  3.179681629249E-01 -3.264839202923E-01
C41 -4.822298715922E-01 -4.125760220876E-01  2.411613452794E-01
C42  4.822298715922E-01  4.125760220876E-01 -2.411613452794E-01
C43  4.612205189246E-01 -3.066821375800E-01  1.665321574951E-01
C44 -4.612205189246E-01  3.066821375800E-01 -1.665321574951E-01
C45  4.791805150928E-01 -4.000318631833E-01  8.287510509200E-02
C46 -4.791805150928E-01  4.000318631833E-01 -8.287510509200E-02
C47  4.230522839272E-01 -2.935351979552E-01  7.305124070039E-03
C48 -4.230522839272E-01  2.935351979552E-01 -7.305124070039E-03
C49 -4.416664355679E-01  3.866726103719E-01  7.531767362176E-02
C50  4.416664355679E-01 -3.866726103719E-01 -7.531767362176E-02
C51 -3.852039252372E-01  2.803061752971E-01  1.519364948613E-01
C52  3.852039252372E-01 -2.803061752971E-01 -1.519364948613E-01
C53 -4.034017037415E-01  3.740948183764E-01  2.336089148054E-01
C54  4.034017037415E-01 -3.740948183764E-01 -2.336089148054E-01
C55 -3.457610700647E-01  2.676802477303E-01  3.118454631159E-01
C56  3.457610700647E-01 -2.676802477303E-01 -3.118454631159E-01
C57 -3.643836245376E-01  3.641829006156E-01  3.913397575391E-01
C58  3.643836245376E-01 -3.641829006156E-01 -3.913397575391E-01
H59 -4.541224761260E-01 -3.510871435413E-01  4.630515903054E-01
H60  4.541224761260E-01  3.510871435413E-01 -4.630515903054E-01
H61  4.427961237023E-01 -1.582453288529E-01  3.322651251607E-01
H62 -4.427961237023E-01  1.582453288529E-01 -3.322651251607E-01
H63  4.023554816849E-01 -1.471631959128E-01  1.722594463432E-01
H64 -4.023554816849E-01  1.471631959128E-01 -1.722594463432E-01
H65  3.641023992719E-01 -1.340747111126E-01  1.302794591922E-02
H66 -3.641023992719E-01  1.340747111126E-01 -1.302794591922E-02
H67 -3.262420994259E-01  1.208059796701E-01  1.462976054487E-01
H68  3.262420994259E-01 -1.208059796701E-01 -1.462976054487E-01
H69 -2.866090336903E-01  1.084178655676E-01  3.062606649046E-01
H70  2.866090336903E-01 -1.084178655676E-01 -3.062606649046E-01
H71 -3.201035686701E-01  2.821950276910E-01  4.500627654888E-01
H72  3.201035686701E-01 -2.821950276910E-01 -4.500627654888E-01


#===END

data_OPT_STEP_56

_symmetry_space_group_name_H-M 'P 1'
_cell_length_a      8.34205960
_cell_length_b      6.16370509
_cell_length_c     15.84833932
_cell_angle_alpha   98.854147
_cell_angle_beta  107.945489
_cell_angle_gamma   87.685763

loop_
_atom_site_label
_atom_site_fract_x
_atom_site_fract_y
_atom_site_fract_z
C1  1.301353492284E-01  4.817549612010E-02  4.052568244184E-01
C2 -1.301353492284E-01 -4.817549612010E-02 -4.052568244184E-01
C3 -9.731177502213E-03 -2.517275254074E-01  2.915814782946E-01
C4  9.731177502213E-03  2.517275254074E-01 -2.915814782946E-01
C5  4.769331613715E-02 -1.613944637472E-01  3.794380402224E-01
C6 -4.769331613715E-02  1.613944637472E-01 -3.794380402224E-01
C7  1.528308528881E-01  1.608158946725E-01  3.423943117186E-01
C8 -1.528308528881E-01 -1.608158946725E-01 -3.423943117186E-01
C9  9.531654363504E-02  7.245692637222E-02  2.489449970890E-01
C10 -9.531654363504E-02 -7.245692637222E-02 -2.489449970890E-01
C11  1.176581340344E-01  1.829808843963E-01  1.836251928250E-01
C12 -1.176581340344E-01 -1.829808843963E-01 -1.836251928250E-01
C13  6.011076123681E-02  9.488521950284E-02  9.173433306339E-02
C14 -6.011076123681E-02 -9.488521950284E-02 -9.173433306339E-02
C15  8.203431085806E-02  2.054978217754E-01  2.533950438689E-02
C16 -8.203431085806E-02 -2.054978217754E-01 -2.533950438689E-02
C17 -2.436887508841E-02 -1.173312454000E-01  6.556908555729E-02
C18  2.436887508841E-02  1.173312454000E-01 -6.556908555729E-02
C19 -4.584507059497E-02 -2.282337930872E-01  1.329392294427E-01
C20  4.584507059497E-02  2.282337930872E-01 -1.329392294427E-01
C21  1.140496423868E-02 -1.398852099294E-01  2.228099980714E-01
C22 -1.140496423868E-02  1.398852099294E-01 -2.228099980714E-01
H23  1.746572367836E-01  1.169662565265E-01  4.756948089576E-01
H24 -1.746572367836E-01 -1.169662565265E-01 -4.756948089576E-01
H25 -7.251562009277E-02 -4.103422794680E-01  2.720370146830E-01
H26  7.251562009277E-02  4.103422794680E-01 -2.720370146830E-01
H27  3.078782219425E-02 -2.482422917320E-01  4.306398441841E-01
H28 -3.078782219425E-02  2.482422917320E-01 -4.306398441841E-01
H29  2.141087130255E-01  3.205471730251E-01  3.614683021373E-01
H30 -2.141087130255E-01 -3.205471730251E-01 -3.614683021373E-01
H31  1.806379410749E-01  3.416445809651E-01  2.031062160494E-01
H32 -1.806379410749E-01 -3.416445809651E-01 -2.031062160494E-01
H33  1.450353580481E-01  3.641141008117E-01  4.481062029609E-02
H34 -1.450353580481E-01 -3.641141008117E-01 -4.481062029609E-02
H35 -1.086388608309E-01 -3.869816287095E-01  1.134383864343E-01
H36  1.086388608309E-01  3.869816287095E-01 -1.134383864343E-01
C37 -4.417255014276E-01 -4.253296393417E-01  3.988106631283E-01
C38  4.417255014276E-01  4.253296393417E-01 -3.988106631283E-01
C39 -4.988181291111E-01 -3.179712484692E-01  3.264973126496E-01
C40  4.988181291111E-01  3.179712484692E-01 -3.264973126496E-01
C41 -4.822643456124E-01 -4.125768886907E-01  2.411609858011E-01
C42  4.822643456124E-01  4.125768886907E-01 -2.411609858011E-01
C43  4.612053630257E-01 -3.067197248289E-01  1.665478983522E-01
C44 -4.612053630257E-01  3.067197248289E-01 -1.665478983522E-01
C45  4.791666515678E-01 -4.000534671912E-01  8.288231996395E-02
C46 -4.791666515678E-01  4.000534671912E-01 -8.288231996395E-02
C47  4.231062400826E-01 -2.935717978971E-01  7.335939952065E-03
C48 -4.231062400826E-01  2.935717978971E-01 -7.335939952065E-03
C49 -4.417297324014E-01  3.866926726765E-01  7.529235103327E-02
C50  4.417297324014E-01 -3.866926726765E-01 -7.529235103327E-02
C51 -3.852671964406E-01  2.803745053556E-01  1.518998407283E-01
C52  3.852671964406E-01 -2.803745053556E-01 -1.518998407283E-01
C53 -4.034563168882E-01  3.741558777060E-01  2.335815922543E-01
C54  4.034563168882E-01 -3.741558777060E-01 -2.335815922543E-01
C55 -3.458150702452E-01  2.677845746627E-01  3.118023420358E-01
C56  3.458150702452E-01 -2.677845746627E-01 -3.118023420358E-01
C57 -3.643955339824E-01  3.642908757678E-01  3.913100228892E-01
C58  3.643955339824E-01 -3.642908757678E-01 -3.913100228892E-01
H59 -4.540351007038E-01 -3.510273418125E-01  4.630712042879E-01
H60  4.540351007038E-01  3.510273418125E-01 -4.630712042879E-01
H61  4.427759922222E-01 -1.583048870860E-01  3.322942281792E-01
H62 -4.427759922222E-01  1.583048870860E-01 -3.322942281792E-01
H63  4.023548670661E-01 -1.472411330302E-01  1.722857913221E-01
H64 -4.023548670661E-01  1.472411330302E-01 -1.722857913221E-01
H65  3.641794030983E-01 -1.341462020664E-01  1.306670813398E-02
H66 -3.641794030983E-01  1.341462020664E-01 -1.306670813398E-02
H67 -3.263160080248E-01  1.209176517814E-01  1.462502482754E-01
H68  3.263160080248E-01 -1.209176517814E-01 -1.462502482754E-01
H69 -2.866620992656E-01  1.085724662765E-01  3.062057220571E-01
H70  2.866620992656E-01 -1.085724662765E-01 -3.062057220571E-01
H71 -3.200500127588E-01  2.823834260744E-01  4.500295750453E-01
H72  3.200500127588E-01 -2.823834260744E-01 -4.500295750453E-01


#===END

data_OPT_STEP_57

_symmetry_space_group_name_H-M 'P 1'
_cell_length_a      8.33726588
_cell_length_b      6.16594389
_cell_length_c     15.84790987
_cell_angle_alpha   98.856959
_cell_angle_beta  107.921143
_cell_angle_gamma   87.695670

loop_
_atom_site_label
_atom_site_fract_x
_atom_site_fract_y
_atom_site_fract_z
C1  1.301228946851E-01  4.822250823434E-02  4.052389770891E-01
C2 -1.301228946851E-01 -4.822250823434E-02 -4.052389770891E-01
C3 -9.673114243371E-03 -2.516806137243E-01  2.915921550093E-01
C4  9.673114243371E-03  2.516806137243E-01 -2.915921550093E-01
C5  4.771855823852E-02 -1.613354472883E-01  3.794371095495E-01
C6 -4.771855823852E-02  1.613354472883E-01 -3.794371095495E-01
C7  1.528294034796E-01  1.608263396363E-01  3.423720438092E-01
C8 -1.528294034796E-01 -1.608263396363E-01 -3.423720438092E-01
C9  9.534670763739E-02  7.245410198699E-02  2.489328183995E-01
C10 -9.534670763739E-02 -7.245410198699E-02 -2.489328183995E-01
C11  1.176602867082E-01  1.829724215272E-01  1.836060717930E-01
C12 -1.176602867082E-01 -1.829724215272E-01 -1.836060717930E-01
C13  6.011602918731E-02  9.487629287558E-02  9.172460222993E-02
C14 -6.011602918731E-02 -9.487629287558E-02 -9.172460222993E-02
C15  8.202588412710E-02  2.054696009555E-01  2.532366937765E-02
C16 -8.202588412710E-02 -2.054696009555E-01 -2.532366937765E-02
C17 -2.435804017241E-02 -1.173082888704E-01  6.557548045922E-02
C18  2.435804017241E-02  1.173082888704E-01 -6.557548045922E-02
C19 -4.580740305977E-02 -2.281982663649E-01  1.329530617560E-01
C20  4.580740305977E-02  2.281982663649E-01 -1.329530617560E-01
C21  1.146746978763E-02 -1.398710412627E-01  2.228154410771E-01
C22 -1.146746978763E-02  1.398710412627E-01 -2.228154410771E-01
H23  1.746197761114E-01  1.170260640223E-01  4.756678226249E-01
H24 -1.746197761114E-01 -1.170260640223E-01 -4.756678226249E-01
H25 -7.242757200137E-02 -4.102874034252E-01  2.720637503243E-01
H26  7.242757200137E-02  4.102874034252E-01 -2.720637503243E-01
H27  3.078263083408E-02 -2.481453255889E-01  4.306392604815E-01
H28 -3.078263083408E-02  2.481453255889E-01 -4.306392604815E-01
H29  2.140958839870E-01  3.205368335467E-01  3.614378053444E-01
H30 -2.140958839870E-01 -3.205368335467E-01 -3.614378053444E-01
H31  1.806198497891E-01  3.416214771102E-01  2.030721687684E-01
H32 -1.806198497891E-01 -3.416214771102E-01 -2.030721687684E-01
H33  1.450255533809E-01  3.640590090432E-01  4.478218673501E-02
H34 -1.450255533809E-01 -3.640590090432E-01 -4.478218673501E-02
H35 -1.086114066901E-01 -3.869122527973E-01  1.134647836574E-01
H36  1.086114066901E-01  3.869122527973E-01 -1.134647836574E-01
C37 -4.416955437718E-01 -4.252796423784E-01  3.988145251887E-01
C38  4.416955437718E-01  4.252796423784E-01 -3.988145251887E-01
C39 -4.988150366003E-01 -3.179763124986E-01  3.265105174145E-01
C40  4.988150366003E-01  3.179763124986E-01 -3.265105174145E-01
C41 -4.822731100474E-01 -4.125699829805E-01  2.411647946076E-01
C42  4.822731100474E-01  4.125699829805E-01 -2.411647946076E-01
C43  4.612038651622E-01 -3.067509722067E-01  1.665648085000E-01
C44 -4.612038651622E-01  3.067509722067E-01 -1.665648085000E-01
C45  4.791627786182E-01 -4.000721515851E-01  8.289021875592E-02
C46 -4.791627786182E-01  4.000721515851E-01 -8.289021875592E-02
C47  4.231228277636E-01 -2.936230772378E-01  7.357978676076E-03
C48 -4.231228277636E-01  2.936230772378E-01 -7.357978676076E-03
C49 -4.417488264453E-01  3.867294402009E-01  7.527709695444E-02
C50  4.417488264453E-01 -3.867294402009E-01 -7.527709695444E-02
C51 -3.853369276491E-01  2.804279211871E-01  1.518639151937E-01
C52  3.853369276491E-01 -2.804279211871E-01 -1.518639151937E-01
C53 -4.035180628194E-01  3.741974720822E-01  2.335539420484E-01
C54  4.035180628194E-01 -3.741974720822E-01 -2.335539420484E-01
C55 -3.458608822444E-01  2.678775825621E-01  3.117653189640E-01
C56  3.458608822444E-01 -2.678775825621E-01 -3.117653189640E-01
C57 -3.643830885556E-01  3.643958717781E-01  3.912885885543E-01
C58  3.643830885556E-01 -3.643958717781E-01 -3.912885885543E-01
H59 -4.539903597188E-01 -3.509904827988E-01  4.630824038779E-01
H60  4.539903597188E-01  3.509904827988E-01 -4.630824038779E-01
H61  4.427783273402E-01 -1.583574527036E-01  3.323239630107E-01
H62 -4.427783273402E-01  1.583574527036E-01 -3.323239630107E-01
H63  4.023721224364E-01 -1.473091106855E-01  1.723187556956E-01
H64 -4.023721224364E-01  1.473091106855E-01 -1.723187556956E-01
H65  3.642182359036E-01 -1.342311846751E-01  1.310380330643E-02
H66 -3.642182359036E-01  1.342311846751E-01 -1.310380330643E-02
H67 -3.263796311769E-01  1.210215838134E-01  1.462022133686E-01
H68  3.263796311769E-01 -1.210215838134E-01 -1.462022133686E-01
H69 -2.867553636515E-01  1.086862634341E-01  3.061450466731E-01
H70  2.867553636515E-01 -1.086862634341E-01 -3.061450466731E-01
H71 -3.200273319732E-01  2.825289743362E-01  4.499979791617E-01
H72  3.200273319732E-01 -2.825289743362E-01 -4.499979791617E-01


#===END

data_OPT_STEP_58

_symmetry_space_group_name_H-M 'P 1'
_cell_length_a      8.33257920
_cell_length_b      6.16826155
_cell_length_c     15.84741946
_cell_angle_alpha   98.859841
_cell_angle_beta  107.896396
_cell_angle_gamma   87.704913

loop_
_atom_site_label
_atom_site_fract_x
_atom_site_fract_y
_atom_site_fract_z
C1  1.301237350992E-01  4.826032768928E-02  4.052194984563E-01
C2 -1.301237350992E-01 -4.826032768928E-02 -4.052194984563E-01
C3 -9.647360541240E-03 -2.516069806691E-01  2.915993600546E-01
C4  9.647360541240E-03  2.516069806691E-01 -2.915993600546E-01
C5  4.773612850888E-02 -1.612674957255E-01  3.794338418642E-01
C6 -4.773612850888E-02  1.612674957255E-01 -3.794338418642E-01
C7  1.528260693939E-01  1.608380332653E-01  3.423475634182E-01
C8 -1.528260693939E-01 -1.608380332653E-01 -3.423475634182E-01
C9  9.535062207565E-02  7.247037955521E-02  2.489183277004E-01
C10 -9.535062207565E-02 -7.247037955521E-02 -2.489183277004E-01
C11  1.176508921355E-01  1.829669558726E-01  1.835851452905E-01
C12 -1.176508921355E-01 -1.829669558726E-01 -1.835851452905E-01
C13  6.011031159874E-02  9.487167306887E-02  9.171349160820E-02
C14 -6.011031159874E-02 -9.487167306887E-02 -9.171349160820E-02
C15  8.199675539694E-02  2.054497080396E-01  2.530551667200E-02
C16 -8.199675539694E-02 -2.054497080396E-01 -2.530551667200E-02
C17 -2.433438806781E-02 -1.172905354778E-01  6.558312416509E-02
C18  2.433438806781E-02  1.172905354778E-01 -6.558312416509E-02
C19 -4.577129371149E-02 -2.281569048958E-01  1.329662112737E-01
C20  4.577129371149E-02  2.281569048958E-01 -1.329662112737E-01
C21  1.148723893366E-02 -1.398244780669E-01  2.228178833653E-01
C22 -1.148723893366E-02  1.398244780669E-01 -2.228178833653E-01
H23  1.746089791495E-01  1.170654148207E-01  4.756403535669E-01
H24 -1.746089791495E-01 -1.170654148207E-01 -4.756403535669E-01
H25 -7.239439350395E-02 -4.101881842312E-01  2.720834956502E-01
H26  7.239439350395E-02  4.101881842312E-01 -2.720834956502E-01
H27  3.080098938872E-02 -2.480602901226E-01  4.306385585358E-01
H28 -3.080098938872E-02  2.480602901226E-01 -4.306385585358E-01
H29  2.140712714470E-01  3.205315522186E-01  3.614023497959E-01
H30 -2.140712714470E-01 -3.205315522186E-01 -3.614023497959E-01
H31  1.805975780491E-01  3.415936975417E-01  2.030371126089E-01
H32 -1.805975780491E-01 -3.415936975417E-01 -2.030371126089E-01
H33  1.449843978592E-01  3.640164043847E-01  4.475046832659E-02
H34 -1.449843978592E-01 -3.640164043847E-01 -4.475046832659E-02
H35 -1.085580947555E-01 -3.868507080419E-01  1.134924069219E-01
H36  1.085580947555E-01  3.868507080419E-01 -1.134924069219E-01
C37 -4.416699791818E-01 -4.252366589221E-01  3.988154342780E-01
C38  4.416699791818E-01  4.252366589221E-01 -3.988154342780E-01
C39 -4.987975055355E-01 -3.179814662906E-01  3.265244805432E-01
C40  4.987975055355E-01  3.179814662906E-01 -3.265244805432E-01
C41 -4.822769068819E-01 -4.125681591077E-01  2.411680028751E-01
C42  4.822769068819E-01  4.125681591077E-01 -2.411680028751E-01
C43  4.612140480083E-01 -3.067835404317E-01  1.665836819176E-01
C44 -4.612140480083E-01  3.067835404317E-01 -1.665836819176E-01
C45  4.791657794575E-01 -4.000905300157E-01  8.289964387780E-02
C46 -4.791657794575E-01  4.000905300157E-01 -8.289964387780E-02
C47  4.231561643682E-01 -2.936671569808E-01  7.385247042020E-03
C48 -4.231561643682E-01  2.936671569808E-01 -7.385247042020E-03
C49 -4.417789387226E-01  3.867580071983E-01  7.525816120512E-02
C50  4.417789387226E-01 -3.867580071983E-01 -7.525816120512E-02
C51 -3.853795683793E-01  2.804928662318E-01  1.518305386362E-01
C52  3.853795683793E-01 -2.804928662318E-01 -1.518305386362E-01
C53 -4.035492895658E-01  3.742505285995E-01  2.335301881540E-01
C54  4.035492895658E-01 -3.742505285995E-01 -2.335301881540E-01
C55 -3.459096647088E-01  2.679665203796E-01  3.117240735300E-01
C56  3.459096647088E-01 -2.679665203796E-01 -3.117240735300E-01
C57 -3.643901014015E-01  3.644860662700E-01  3.912613582548E-01
C58  3.643901014015E-01 -3.644860662700E-01 -3.912613582548E-01
H59 -4.539439547784E-01 -3.509524564719E-01  4.630915239185E-01
H60  4.539439547784E-01  3.509524564719E-01 -4.630915239185E-01
H61  4.428145307134E-01 -1.584031424806E-01  3.323583716655E-01
H62 -4.428145307134E-01  1.584031424806E-01 -3.323583716655E-01
H63  4.023987533638E-01 -1.473818545346E-01  1.723561446064E-01
H64 -4.023987533638E-01  1.473818545346E-01 -1.723561446064E-01
H65  3.642618682223E-01 -1.343176159014E-01  1.314744027535E-02
H66 -3.642618682223E-01  1.343176159014E-01 -1.314744027535E-02
H67 -3.264608774112E-01  1.211149442371E-01  1.461462515389E-01
H68  3.264608774112E-01 -1.211149442371E-01 -1.461462515389E-01
H69 -2.868117557308E-01  1.088206907192E-01  3.060867021954E-01
H70  2.868117557308E-01 -1.088206907192E-01 -3.060867021954E-01
H71 -3.200177551845E-01  2.826627148899E-01  4.499621666636E-01
H72  3.200177551845E-01 -2.826627148899E-01 -4.499621666636E-01


#===END

data_OPT_STEP_59

_symmetry_space_group_name_H-M 'P 1'
_cell_length_a      8.32792984
_cell_length_b      6.17053275
_cell_length_c     15.84721105
_cell_angle_alpha   98.863554
_cell_angle_beta  107.871431
_cell_angle_gamma   87.715478

loop_
_atom_site_label
_atom_site_fract_x
_atom_site_fract_y
_atom_site_fract_z
C1  1.301311543517E-01  4.830290043997E-02  4.051948794074E-01
C2 -1.301311543517E-01 -4.830290043997E-02 -4.051948794074E-01
C3 -9.605841199288E-03 -2.515437799890E-01  2.916015425666E-01
C4  9.605841199289E-03  2.515437799890E-01 -2.916015425666E-01
C5  4.775892450832E-02 -1.611976160230E-01  3.794242365749E-01
C6 -4.775892450832E-02  1.611976160230E-01 -3.794242365749E-01
C7  1.528109431406E-01  1.608671329562E-01  3.423183780099E-01
C8 -1.528109431406E-01 -1.608671329562E-01 -3.423183780099E-01
C9  9.535552163695E-02  7.249071185166E-02  2.489006481141E-01
C10 -9.535552163695E-02 -7.249071185166E-02 -2.489006481141E-01
C11  1.176431217506E-01  1.829648375405E-01  1.835627359744E-01
C12 -1.176431217506E-01 -1.829648375405E-01 -1.835627359744E-01
C13  6.010335915393E-02  9.487354913571E-02  9.170156022486E-02
C14 -6.010335915393E-02 -9.487354913571E-02 -9.170156022486E-02
C15  8.198322898218E-02  2.054239921571E-01  2.528983982929E-02
C16 -8.198322898218E-02 -2.054239921571E-01 -2.528983982929E-02
C17 -2.432727131917E-02 -1.172634742403E-01  6.558757655413E-02
C18  2.432727131917E-02  1.172634742403E-01 -6.558757655413E-02
C19 -4.574283837769E-02 -2.281109856908E-01  1.329759218572E-01
C20  4.574283837769E-02  2.281109856908E-01 -1.329759218572E-01
C21  1.151723978527E-02 -1.397839483356E-01  2.228166730560E-01
C22 -1.151723978527E-02  1.397839483356E-01 -2.228166730560E-01
H23  1.745953964952E-01  1.171165307056E-01  4.756065808681E-01
H24 -1.745953964952E-01 -1.171165307056E-01 -4.756065808681E-01
H25 -7.236444469230E-02 -4.100909146370E-01  2.720964923775E-01
H26  7.236444469230E-02  4.100909146370E-01 -2.720964923775E-01
H27  3.081970907923E-02 -2.479685427098E-01  4.306302684691E-01
H28 -3.081970907923E-02  2.479685427098E-01 -4.306302684691E-01
H29  2.140446023683E-01  3.205399623124E-01  3.613617475805E-01
H30 -2.140446023683E-01 -3.205399623124E-01 -3.613617475805E-01
H31  1.805632226687E-01  3.415823413892E-01  2.030014196497E-01
H32 -1.805632226687E-01 -3.415823413892E-01 -2.030014196497E-01
H33  1.449361474742E-01  3.639859763056E-01  4.472052166500E-02
H34 -1.449361474742E-01 -3.639859763056E-01 -4.472052166500E-02
H35 -1.085154772753E-01 -3.867866687155E-01  1.135155551809E-01
H36  1.085154772753E-01  3.867866687155E-01 -1.135155551809E-01
C37 -4.416523287631E-01 -4.251940140969E-01  3.988098771635E-01
C38  4.416523287631E-01  4.251940140969E-01 -3.988098771635E-01
C39 -4.987674610075E-01 -3.179760529401E-01  3.265373231546E-01
C40  4.987674610075E-01  3.179760529401E-01 -3.265373231546E-01
C41 -4.822804910802E-01 -4.125625430005E-01  2.411685002924E-01
C42  4.822804910802E-01  4.125625430005E-01 -2.411685002924E-01
C43  4.612223130560E-01 -3.068140056623E-01  1.666004072299E-01
C44 -4.612223130560E-01  3.068140056623E-01 -1.666004072299E-01
C45  4.791610265831E-01 -4.001107151047E-01  8.290689597204E-02
C46 -4.791610265831E-01  4.001107151047E-01 -8.290689597204E-02
C47  4.231853483101E-01 -2.937132142028E-01  7.411725790163E-03
C48 -4.231853483101E-01  2.937132142028E-01 -7.411725790163E-03
C49 -4.418182431677E-01  3.867825321872E-01  7.523686251583E-02
C50  4.418182431677E-01 -3.867825321872E-01 -7.523686251583E-02
C51 -3.854438948634E-01  2.805481236589E-01  1.517909512892E-01
C52  3.854438948634E-01 -2.805481236589E-01 -1.517909512892E-01
C53 -4.035817855219E-01  3.743047760991E-01  2.335026648685E-01
C54  4.035817855219E-01 -3.743047760991E-01 -2.335026648685E-01
C55 -3.459267655977E-01  2.680717072653E-01  3.116838330104E-01
C56  3.459267655977E-01 -2.680717072653E-01 -3.116838330104E-01
C57 -3.643869770177E-01  3.645853661452E-01  3.912309267284E-01
C58  3.643869770177E-01 -3.645853661452E-01 -3.912309267284E-01
H59 -4.538897911743E-01 -3.509075529269E-01  4.630973221785E-01
H60  4.538897911743E-01  3.509075529269E-01 -4.630973221785E-01
H61  4.428501917159E-01 -1.584444362542E-01  3.323899116694E-01
H62 -4.428501917159E-01  1.584444362542E-01 -3.323899116694E-01
H63  4.024333863741E-01 -1.474472416354E-01  1.723935086627E-01
H64 -4.024333863741E-01  1.474472416354E-01 -1.723935086627E-01
H65  3.643303853892E-01 -1.343907227968E-01  1.319598658726E-02
H66 -3.643303853892E-01  1.343907227968E-01 -1.319598658726E-02
H67 -3.265176772646E-01  1.212235989679E-01  1.460926983069E-01
H68  3.265176772646E-01 -1.212235989679E-01 -1.460926983069E-01
H69 -2.868532375659E-01  1.089612621091E-01  3.060262822151E-01
H70  2.868532375659E-01 -1.089612621091E-01 -3.060262822151E-01
H71 -3.199949572792E-01  2.828091568193E-01  4.499224840072E-01
H72  3.199949572792E-01 -2.828091568193E-01 -4.499224840072E-01


#===END

data_OPT_STEP_60

_symmetry_space_group_name_H-M 'P 1'
_cell_length_a      8.32323882
_cell_length_b      6.17279639
_cell_length_c     15.84709691
_cell_angle_alpha   98.866948
_cell_angle_beta  107.846469
_cell_angle_gamma   87.724662

loop_
_atom_site_label
_atom_site_fract_x
_atom_site_fract_y
_atom_site_fract_z
C1  1.301217776099E-01  4.835787866009E-02  4.051707541331E-01
C2 -1.301217776099E-01 -4.835787866009E-02 -4.051707541331E-01
C3 -9.572969380156E-03 -2.514700803916E-01  2.916054443783E-01
C4  9.572969380156E-03  2.514700803916E-01 -2.916054443783E-01
C5  4.777394070309E-02 -1.611184022390E-01  3.794158611109E-01
C6 -4.777394070309E-02  1.611184022390E-01 -3.794158611109E-01
C7  1.528115880438E-01  1.608863317938E-01  3.422910621200E-01
C8 -1.528115880438E-01 -1.608863317938E-01 -3.422910621200E-01
C9  9.536227956064E-02  7.251017188419E-02  2.488842502046E-01
C10 -9.536227956064E-02 -7.251017188419E-02 -2.488842502046E-01
C11  1.176369618116E-01  1.829591145429E-01  1.835408458530E-01
C12 -1.176369618116E-01 -1.829591145429E-01 -1.835408458530E-01
C13  6.010777859654E-02  9.486536740339E-02  9.169119556804E-02
C14 -6.010777859654E-02 -9.486536740339E-02 -9.169119556804E-02
C15  8.195665857803E-02  2.054016406876E-01  2.527170778773E-02
C16 -8.195665857803E-02 -2.054016406876E-01 -2.527170778773E-02
C17 -2.429425088199E-02 -1.172508639467E-01  6.559454362306E-02
C18  2.429425088199E-02  1.172508639467E-01 -6.559454362306E-02
C19 -4.569940155483E-02 -2.280706771744E-01  1.329882630056E-01
C20  4.569940155483E-02  2.280706771744E-01 -1.329882630056E-01
C21  1.154709013251E-02 -1.397400186397E-01  2.228170489579E-01
C22 -1.154709013251E-02  1.397400186397E-01 -2.228170489579E-01
H23  1.745837562386E-01  1.171616347351E-01  4.755740422190E-01
H24 -1.745837562386E-01 -1.171616347351E-01 -4.755740422190E-01
H25 -7.228997216357E-02 -4.100127286999E-01  2.721155884199E-01
H26  7.228997216357E-02  4.100127286999E-01 -2.721155884199E-01
H27  3.083161504343E-02 -2.478663411063E-01  4.306234974209E-01
H28 -3.083161504343E-02  2.478663411063E-01 -4.306234974209E-01
H29  2.140335929346E-01  3.205377725255E-01  3.613225483900E-01
H30 -2.140335929346E-01 -3.205377725255E-01 -3.613225483900E-01
H31  1.805493312974E-01  3.415511580010E-01  2.029670411177E-01
H32 -1.805493312974E-01 -3.415511580010E-01 -2.029670411177E-01
H33  1.449067263392E-01  3.639353444481E-01  4.469034900121E-02
H34 -1.449067263392E-01 -3.639353444481E-01 -4.469034900121E-02
H35 -1.084519056651E-01 -3.867291469651E-01  1.135415748343E-01
H36  1.084519056651E-01  3.867291469651E-01 -1.135415748343E-01
C37 -4.416201710259E-01 -4.251438098627E-01  3.988061415358E-01
C38  4.416201710259E-01  4.251438098627E-01 -3.988061415358E-01
C39 -4.987517707390E-01 -3.179769988837E-01  3.265459539741E-01
C40  4.987517707390E-01  3.179769988837E-01 -3.265459539741E-01
C41 -4.822778208825E-01 -4.125539010915E-01  2.411693932924E-01
C42  4.822778208825E-01  4.125539010915E-01 -2.411693932924E-01
C43  4.612442152384E-01 -3.068372455873E-01  1.666183568577E-01
C44 -4.612442152384E-01  3.068372455873E-01 -1.666183568577E-01
C45  4.791810284846E-01 -4.001178592299E-01  8.291823987106E-02
C46 -4.791810284846E-01  4.001178592299E-01 -8.291823987106E-02
C47  4.232213848233E-01 -2.937533446459E-01  7.438617606675E-03
C48 -4.232213848233E-01  2.937533446459E-01 -7.438617606675E-03
C49 -4.418362664654E-01  3.868159894363E-01  7.522028788443E-02
C50  4.418362664654E-01 -3.868159894363E-01 -7.522028788443E-02
C51 -3.854778607659E-01  2.806146674215E-01  1.517584954494E-01
C52  3.854778607659E-01 -2.806146674215E-01 -1.517584954494E-01
C53 -4.036066300358E-01  3.743593524325E-01  2.334775885508E-01
C54  4.036066300358E-01 -3.743593524325E-01 -2.334775885508E-01
C55 -3.459637282315E-01  2.681627854618E-01  3.116412562634E-01
C56  3.459637282315E-01 -2.681627854618E-01 -3.116412562634E-01
C57 -3.643854970392E-01  3.646807574973E-01  3.912003641946E-01
C58  3.643854970392E-01 -3.646807574973E-01 -3.912003641946E-01
H59 -4.538402462860E-01 -3.508648870330E-01  4.631008440293E-01
H60  4.538402462860E-01  3.508648870330E-01 -4.631008440293E-01
H61  4.428952083993E-01 -1.584789108748E-01  3.324203419416E-01
H62 -4.428952083993E-01  1.584789108748E-01 -3.324203419416E-01
H63  4.024611224370E-01 -1.475136952055E-01  1.724286155835E-01
H64 -4.024611224370E-01  1.475136952055E-01 -1.724286155835E-01
H65  3.643805934380E-01 -1.344700898335E-01  1.324130662382E-02
H66 -3.643805934380E-01  1.344700898335E-01 -1.324130662382E-02
H67 -3.265903379234E-01  1.213154975606E-01  1.460372425772E-01
H68  3.265903379234E-01 -1.213154975606E-01 -1.460372425772E-01
H69 -2.869071415204E-01  1.090898545173E-01  3.059649796483E-01
H70  2.869071415204E-01 -1.090898545173E-01 -3.059649796483E-01
H71 -3.199789411302E-01  2.829469135340E-01  4.498820752514E-01
H72  3.199789411302E-01 -2.829469135340E-01 -4.498820752514E-01


#===END

data_OPT_STEP_61

_symmetry_space_group_name_H-M 'P 1'
_cell_length_a      8.31855931
_cell_length_b      6.17503413
_cell_length_c     15.84688844
_cell_angle_alpha   98.870782
_cell_angle_beta  107.821359
_cell_angle_gamma   87.731797

loop_
_atom_site_label
_atom_site_fract_x
_atom_site_fract_y
_atom_site_fract_z
C1  1.301289925565E-01  4.839501421024E-02  4.051425378807E-01
C2 -1.301289925565E-01 -4.839501421024E-02 -4.051425378807E-01
C3 -9.535509805554E-03 -2.514022576407E-01  2.916067192795E-01
C4  9.535509805554E-03  2.514022576407E-01 -2.916067192795E-01
C5  4.780006114163E-02 -1.610501384556E-01  3.794043900313E-01
C6 -4.780006114163E-02  1.610501384556E-01 -3.794043900313E-01
C7  1.528030869725E-01  1.609038851051E-01  3.422585006065E-01
C8 -1.528030869725E-01 -1.609038851051E-01 -3.422585006065E-01
C9  9.535405496758E-02  7.253304954292E-02  2.488637843015E-01
C10 -9.535405496758E-02 -7.253304954292E-02 -2.488637843015E-01
C11  1.176114165470E-01  1.829609504199E-01  1.835153527608E-01
C12 -1.176114165470E-01 -1.829609504199E-01 -1.835153527608E-01
C13  6.008711785667E-02  9.487164983915E-02  9.167786959809E-02
C14 -6.008711785667E-02 -9.487164983915E-02 -9.167786959809E-02
C15  8.192065633823E-02  2.053852714669E-01  2.525383149318E-02
C16 -8.192065633823E-02 -2.053852714669E-01 -2.525383149318E-02
C17 -2.427888777156E-02 -1.172277273676E-01  6.559953518136E-02
C18  2.427888777156E-02  1.172277273676E-01 -6.559953518136E-02
C19 -4.566378837324E-02 -2.280290457329E-01  1.329977131943E-01
C20  4.566378837324E-02  2.280290457329E-01 -1.329977131943E-01
C21  1.156873621306E-02 -1.396954118256E-01  2.228141195610E-01
C22 -1.156873621306E-02  1.396954118256E-01 -2.228141195610E-01
H23  1.745792225643E-01  1.171942150347E-01  4.755369026762E-01
H24 -1.745792225643E-01 -1.171942150347E-01 -4.755369026762E-01
H25 -7.224199312291E-02 -4.099210094836E-01  2.721288368677E-01
H26  7.224199312291E-02  4.099210094836E-01 -2.721288368677E-01
H27  3.086413511204E-02 -2.477780543069E-01  4.306150639179E-01
H28 -3.086413511204E-02  2.477780543069E-01 -4.306150639179E-01
H29  2.140050824689E-01  3.205364446071E-01  3.612753738802E-01
H30 -2.140050824689E-01 -3.205364446071E-01 -3.612753738802E-01
H31  1.804960723660E-01  3.415406282422E-01  2.029285220457E-01
H32 -1.804960723660E-01 -3.415406282422E-01 -2.029285220457E-01
H33  1.448481565636E-01  3.639031534329E-01  4.465892990650E-02
H34 -1.448481565636E-01 -3.639031534329E-01 -4.465892990650E-02
H35 -1.083950959701E-01 -3.866704484055E-01  1.135637212026E-01
H36  1.083950959701E-01  3.866704484055E-01 -1.135637212026E-01
C37 -4.415800259597E-01 -4.250925632934E-01  3.988023622137E-01
C38  4.415800259597E-01  4.250925632934E-01 -3.988023622137E-01
C39 -4.987095011282E-01 -3.179647426176E-01  3.265586333965E-01
C40  4.987095011282E-01  3.179647426176E-01 -3.265586333965E-01
C41 -4.822681106708E-01 -4.125434466661E-01  2.411704082417E-01
C42  4.822681106708E-01  4.125434466661E-01 -2.411704082417E-01
C43  4.612598116216E-01 -3.068624278324E-01  1.666355417809E-01
C44 -4.612598116216E-01  3.068624278324E-01 -1.666355417809E-01
C45  4.791846936463E-01 -4.001334718505E-01  8.292634568080E-02
C46 -4.791846936463E-01  4.001334718505E-01 -8.292634568080E-02
C47  4.232523159514E-01 -2.937921866087E-01  7.466440763582E-03
C48 -4.232523159514E-01  2.937921866087E-01 -7.466440763582E-03
C49 -4.418624149756E-01  3.868416240810E-01  7.520016106069E-02
C50  4.418624149756E-01 -3.868416240810E-01 -7.520016106069E-02
C51 -3.855184565611E-01  2.806704666132E-01  1.517211000403E-01
C52  3.855184565611E-01 -2.806704666132E-01 -1.517211000403E-01
C53 -4.036357557344E-01  3.744068537479E-01  2.334487129139E-01
C54  4.036357557344E-01 -3.744068537479E-01 -2.334487129139E-01
C55 -3.459914761973E-01  2.682522545640E-01  3.115969974084E-01
C56  3.459914761973E-01 -2.682522545640E-01 -3.115969974084E-01
C57 -3.643712406293E-01  3.647779920570E-01  3.911692533456E-01
C58  3.643712406293E-01 -3.647779920570E-01 -3.911692533456E-01
H59 -4.537902287631E-01 -3.508186633134E-01  4.631023569342E-01
H60  4.537902287631E-01  3.508186633134E-01 -4.631023569342E-01
H61  4.429439839591E-01 -1.585064180602E-01  3.324521135758E-01
H62 -4.429439839591E-01  1.585064180602E-01 -3.324521135758E-01
H63  4.025209704733E-01 -1.475596690578E-01  1.724726220039E-01
H64 -4.025209704733E-01  1.475596690578E-01 -1.724726220039E-01
H65  3.644242039039E-01 -1.345453109294E-01  1.328997026494E-02
H66 -3.644242039039E-01  1.345453109294E-01 -1.328997026494E-02
H67 -3.266598605577E-01  1.213995151789E-01  1.459763438475E-01
H68  3.266598605577E-01 -1.213995151789E-01 -1.459763438475E-01
H69 -2.869618970730E-01  1.092084330794E-01  3.058984104109E-01
H70  2.869618970730E-01 -1.092084330794E-01 -3.058984104109E-01
H71 -3.199588127158E-01  2.830801739150E-01  4.498394512017E-01
H72  3.199588127158E-01 -2.830801739150E-01 -4.498394512017E-01


#===END

data_OPT_STEP_62

_symmetry_space_group_name_H-M 'P 1'
_cell_length_a      8.31391934
_cell_length_b      6.17725425
_cell_length_c     15.84683994
_cell_angle_alpha   98.874822
_cell_angle_beta  107.796227
_cell_angle_gamma   87.739307

loop_
_atom_site_label
_atom_site_fract_x
_atom_site_fract_y
_atom_site_fract_z
C1  1.301226666951E-01  4.845581559129E-02  4.051104978597E-01
C2 -1.301226666951E-01 -4.845581559129E-02 -4.051104978597E-01
C3 -9.483724002728E-03 -2.513378968424E-01  2.916067965840E-01
C4  9.483724002728E-03  2.513378968424E-01 -2.916067965840E-01
C5  4.783597454226E-02 -1.609767830534E-01  3.793908856141E-01
C6 -4.783597454226E-02  1.609767830534E-01 -3.793908856141E-01
C7  1.527770818539E-01  1.609438023826E-01  3.422218739226E-01
C8 -1.527770818539E-01 -1.609438023826E-01 -3.422218739226E-01
C9  9.535421999985E-02  7.255721688315E-02  2.488418428958E-01
C10 -9.535421999985E-02 -7.255721688315E-02 -2.488418428958E-01
C11  1.175831450960E-01  1.829706556074E-01  1.834884032362E-01
C12 -1.175831450960E-01 -1.829706556074E-01 -1.834884032362E-01
C13  6.007898149103E-02  9.487341305805E-02  9.166435777151E-02
C14 -6.007898149103E-02 -9.487341305805E-02 -9.166435777151E-02
C15  8.189461871929E-02  2.053642510608E-01  2.523614887329E-02
C16 -8.189461871929E-02 -2.053642510608E-01 -2.523614887329E-02
C17 -2.425931548075E-02 -1.172074566892E-01  6.560432387688E-02
C18  2.425931548075E-02  1.172074566892E-01 -6.560432387688E-02
C19 -4.562815277507E-02 -2.279841115686E-01  1.330063387020E-01
C20  4.562815277507E-02  2.279841115686E-01 -1.330063387020E-01
C21  1.159452559574E-02 -1.396488583208E-01  2.228097486699E-01
C22 -1.159452559574E-02  1.396488583208E-01 -2.228097486699E-01
H23  1.745691462430E-01  1.172483714742E-01  4.754957074936E-01
H24 -1.745691462430E-01 -1.172483714742E-01 -4.754957074936E-01
H25 -7.217018798261E-02 -4.098404779572E-01  2.721424370331E-01
H26  7.217018798261E-02  4.098404779572E-01 -2.721424370331E-01
H27  3.091259835509E-02 -2.476840433539E-01  4.306053707682E-01
H28 -3.091259835509E-02  2.476840433539E-01 -4.306053707682E-01
H29  2.139665490357E-01  3.205514978562E-01  3.612227390461E-01
H30 -2.139665490357E-01 -3.205514978562E-01 -3.612227390461E-01
H31  1.804593616834E-01  3.415248370565E-01  2.028893457706E-01
H32 -1.804593616834E-01 -3.415248370565E-01 -2.028893457706E-01
H33  1.447935894419E-01  3.638710509070E-01  4.462715124202E-02
H34 -1.447935894419E-01 -3.638710509070E-01 -4.462715124202E-02
H35 -1.083357203005E-01 -3.866115227893E-01  1.135857468674E-01
H36  1.083357203005E-01  3.866115227893E-01 -1.135857468674E-01
C37 -4.415495173543E-01 -4.250459494479E-01  3.987923542779E-01
C38  4.415495173543E-01  4.250459494479E-01 -3.987923542779E-01
C39 -4.986860112341E-01 -3.179615574383E-01  3.265642055281E-01
C40  4.986860112341E-01  3.179615574383E-01 -3.265642055281E-01
C41 -4.822560492657E-01 -4.125306514721E-01  2.411694942250E-01
C42  4.822560492657E-01  4.125306514721E-01 -2.411694942250E-01
C43  4.612953997830E-01 -3.068748582396E-01  1.666547381408E-01
C44 -4.612953997830E-01  3.068748582396E-01 -1.666547381408E-01
C45  4.791990634790E-01 -4.001416563736E-01  8.293561663842E-02
C46 -4.791990634790E-01  4.001416563736E-01 -8.293561663842E-02
C47  4.232828583409E-01 -2.938306642220E-01  7.493782022365E-03
C48 -4.232828583409E-01  2.938306642220E-01 -7.493782022365E-03
C49 -4.418843894157E-01  3.868700250923E-01  7.518046413969E-02
C50  4.418843894157E-01 -3.868700250923E-01 -7.518046413969E-02
C51 -3.855648942809E-01  2.807248853347E-01  1.516814161410E-01
C52  3.855648942809E-01 -2.807248853347E-01 -1.516814161410E-01
C53 -4.036456774888E-01  3.744650483531E-01  2.334211074473E-01
C54  4.036456774888E-01 -3.744650483531E-01 -2.334211074473E-01
C55 -3.460108069152E-01  2.683437820331E-01  3.115502069852E-01
C56  3.460108069152E-01 -2.683437820331E-01 -3.115502069852E-01
C57 -3.643716511362E-01  3.648653509793E-01  3.911311523091E-01
C58  3.643716511362E-01 -3.648653509793E-01 -3.911311523091E-01
H59 -4.537365975955E-01 -3.507712412140E-01  4.630997141118E-01
H60  4.537365975955E-01  3.507712412140E-01 -4.630997141118E-01
H61  4.430135727410E-01 -1.585235767117E-01  3.324839631081E-01
H62 -4.430135727410E-01  1.585235767117E-01 -3.324839631081E-01
H63  4.025415592903E-01 -1.476208125180E-01  1.725069841184E-01
H64 -4.025415592903E-01  1.476208125180E-01 -1.725069841184E-01
H65  3.644945734768E-01 -1.346053638346E-01  1.334261994783E-02
H66 -3.644945734768E-01  1.346053638346E-01 -1.334261994783E-02
H67 -3.267209677656E-01  1.214895242838E-01  1.459162991713E-01
H68  3.267209677656E-01 -1.214895242838E-01 -1.459162991713E-01
H69 -2.869956831574E-01  1.093352799555E-01  3.058322461990E-01
H70  2.869956831574E-01 -1.093352799555E-01 -3.058322461990E-01
H71 -3.199454226799E-01  2.832071076711E-01  4.497901892830E-01
H72  3.199454226799E-01 -2.832071076711E-01 -4.497901892830E-01


#===END

data_OPT_STEP_63

_symmetry_space_group_name_H-M 'P 1'
_cell_length_a      8.30929377
_cell_length_b      6.17949152
_cell_length_c     15.84689941
_cell_angle_alpha   98.878432
_cell_angle_beta  107.770820
_cell_angle_gamma   87.745779

loop_
_atom_site_label
_atom_site_fract_x
_atom_site_fract_y
_atom_site_fract_z
C1  1.301269111932E-01  4.850737558938E-02  4.050810706063E-01
C2 -1.301269111932E-01 -4.850737558938E-02 -4.050810706063E-01
C3 -9.440169115390E-03 -2.512608952873E-01  2.916088058944E-01
C4  9.440169115390E-03  2.512608952873E-01 -2.916088058944E-01
C5  4.786256844178E-02 -1.608945023030E-01  3.793790087966E-01
C6 -4.786256844178E-02  1.608945023030E-01 -3.793790087966E-01
C7  1.527692273578E-01  1.609697951819E-01  3.421883126416E-01
C8 -1.527692273578E-01 -1.609697951819E-01 -3.421883126416E-01
C9  9.534991628363E-02  7.258565744621E-02  2.488212355793E-01
C10 -9.534991628363E-02 -7.258565744621E-02 -2.488212355793E-01
C11  1.175679446828E-01  1.829681343943E-01  1.834627248552E-01
C12 -1.175679446828E-01 -1.829681343943E-01 -1.834627248552E-01
C13  6.006928243776E-02  9.487459374728E-02  9.165191530035E-02
C14 -6.006928243776E-02 -9.487459374728E-02 -9.165191530035E-02
C15  8.185958607625E-02  2.053426980718E-01  2.521615867192E-02
C16 -8.185958607625E-02 -2.053426980718E-01 -2.521615867192E-02
C17 -2.423149443605E-02 -1.171869093667E-01  6.561058043816E-02
C18  2.423149443605E-02  1.171869093667E-01 -6.561058043816E-02
C19 -4.557982718649E-02 -2.279389161286E-01  1.330187611458E-01
C20  4.557982718649E-02  2.279389161286E-01 -1.330187611458E-01
C21  1.162916336515E-02 -1.396015200884E-01  2.228082695751E-01
C22 -1.162916336515E-02  1.396015200884E-01 -2.228082695751E-01
H23  1.745591260759E-01  1.172976987870E-01  4.754559389863E-01
H24 -1.745591260759E-01 -1.172976987870E-01 -4.754559389863E-01
H25 -7.209702755958E-02 -4.097481871878E-01  2.721590527250E-01
H26  7.209702755958E-02  4.097481871878E-01 -2.721590527250E-01
H27  3.094334940197E-02 -2.475771747054E-01  4.305963586178E-01
H28 -3.094334940197E-02  2.475771747054E-01 -4.305963586178E-01
H29  2.139354187091E-01  3.205602236428E-01  3.611747632378E-01
H30 -2.139354187091E-01 -3.205602236428E-01 -3.611747632378E-01
H31  1.804123123515E-01  3.415104504426E-01  2.028494308667E-01
H32 -1.804123123515E-01 -3.415104504426E-01 -2.028494308667E-01
H33  1.447398915533E-01  3.638284614912E-01  4.459304717571E-02
H34 -1.447398915533E-01 -3.638284614912E-01 -4.459304717571E-02
H35 -1.082635421332E-01 -3.865478110964E-01  1.136124600693E-01
H36  1.082635421332E-01  3.865478110964E-01 -1.136124600693E-01
C37 -4.415128909674E-01 -4.250023322919E-01  3.987829515312E-01
C38  4.415128909674E-01  4.250023322919E-01 -3.987829515312E-01
C39 -4.986340792807E-01 -3.179463701281E-01  3.265740923924E-01
C40  4.986340792807E-01  3.179463701281E-01 -3.265740923924E-01
C41 -4.822312471458E-01 -4.125142814221E-01  2.411698069160E-01
C42  4.822312471458E-01  4.125142814221E-01 -2.411698069160E-01
C43  4.613255381592E-01 -3.068924987442E-01  1.666716798150E-01
C44 -4.613255381592E-01  3.068924987442E-01 -1.666716798150E-01
C45  4.792199501086E-01 -4.001477423217E-01  8.294583545741E-02
C46 -4.792199501086E-01  4.001477423217E-01 -8.294583545741E-02
C47  4.233159972039E-01 -2.938663314548E-01  7.521571010078E-03
C48 -4.233159972039E-01  2.938663314548E-01 -7.521571010078E-03
C49 -4.418972242695E-01  3.868999490985E-01  7.516250766685E-02
C50  4.418972242695E-01 -3.868999490985E-01 -7.516250766685E-02
C51 -3.855878485451E-01  2.807851008741E-01  1.516461563591E-01
C52  3.855878485451E-01 -2.807851008741E-01 -1.516461563591E-01
C53 -4.036576822973E-01  3.745151153369E-01  2.333928090833E-01
C54  4.036576822973E-01 -3.745151153369E-01 -2.333928090833E-01
C55 -3.460210279527E-01  2.684315986828E-01  3.115059941366E-01
C56  3.460210279527E-01 -2.684315986828E-01 -3.115059941366E-01
C57 -3.643524964611E-01  3.649545975265E-01  3.910968955258E-01
C58  3.643524964611E-01 -3.649545975265E-01 -3.910968955258E-01
H59 -4.536896127298E-01 -3.507355870737E-01  4.630962087390E-01
H60  4.536896127298E-01  3.507355870737E-01 -4.630962087390E-01
H61  4.430708197501E-01 -1.585484466230E-01  3.325115902336E-01
H62 -4.430708197501E-01  1.585484466230E-01 -3.325115902336E-01
H63  4.026142968005E-01 -1.476590329798E-01  1.725495591920E-01
H64 -4.026142968005E-01  1.476590329798E-01 -1.725495591920E-01
H65  3.645402589734E-01 -1.346772343846E-01  1.339093406400E-02
H66 -3.645402589734E-01  1.346772343846E-01 -1.339093406400E-02
H67 -3.267720675474E-01  1.215767351928E-01  1.458586246944E-01
H68  3.267720675474E-01 -1.215767351928E-01 -1.458586246944E-01
H69 -2.870311426603E-01  1.094516471284E-01  3.057670477790E-01
H70  2.870311426603E-01 -1.094516471284E-01 -3.057670477790E-01
H71 -3.199242551107E-01  2.833265035339E-01  4.497431787638E-01
H72  3.199242551107E-01 -2.833265035339E-01 -4.497431787638E-01


#===END

data_OPT_STEP_64

_symmetry_space_group_name_H-M 'P 1'
_cell_length_a      8.30465066
_cell_length_b      6.18166709
_cell_length_c     15.84689646
_cell_angle_alpha   98.882232
_cell_angle_beta  107.745184
_cell_angle_gamma   87.750632

loop_
_atom_site_label
_atom_site_fract_x
_atom_site_fract_y
_atom_site_fract_z
C1  1.301357319713E-01  4.855149020411E-02  4.050485559167E-01
C2 -1.301357319713E-01 -4.855149020411E-02 -4.050485559167E-01
C3 -9.390450110838E-03 -2.511888902025E-01  2.916103639631E-01
C4  9.390450110838E-03  2.511888902025E-01 -2.916103639631E-01
C5  4.790089895133E-02 -1.608228666211E-01  3.793660998508E-01
C6 -4.790089895133E-02  1.608228666211E-01 -3.793660998508E-01
C7  1.527566777907E-01  1.609937508571E-01  3.421506465291E-01
C8 -1.527566777907E-01 -1.609937508571E-01 -3.421506465291E-01
C9  9.533745043990E-02  7.261573509285E-02  2.487971904484E-01
C10 -9.533745043990E-02 -7.261573509285E-02 -2.487971904484E-01
C11  1.175289613650E-01  1.829795522516E-01  1.834327315449E-01
C12 -1.175289613650E-01 -1.829795522516E-01 -1.834327315449E-01
C13  6.004307576361E-02  9.488505820330E-02  9.163625349710E-02
C14 -6.004307576361E-02 -9.488505820330E-02 -9.163625349710E-02
C15  8.181864015301E-02  2.053261687361E-01  2.519609062680E-02
C16 -8.181864015301E-02 -2.053261687361E-01 -2.519609062680E-02
C17 -2.421783319837E-02 -1.171583643557E-01  6.561563519750E-02
C18  2.421783319837E-02  1.171583643557E-01 -6.561563519750E-02
C19 -4.554280006015E-02 -2.278894785133E-01  1.330289623986E-01
C20  4.554280006015E-02  2.278894785133E-01 -1.330289623986E-01
C21  1.165423256751E-02 -1.395507967117E-01  2.228043897356E-01
C22 -1.165423256751E-02  1.395507967117E-01 -2.228043897356E-01
H23  1.745634852200E-01  1.173335887416E-01  4.754133591554E-01
H24 -1.745634852200E-01 -1.173335887416E-01 -4.754133591554E-01
H25 -7.202404538954E-02 -4.096575019253E-01  2.721752620237E-01
H26  7.202404538954E-02  4.096575019253E-01 -2.721752620237E-01
H27  3.099947090643E-02 -2.474893407567E-01  4.305875540508E-01
H28 -3.099947090643E-02  2.474893407567E-01 -4.305875540508E-01
H29  2.138990722529E-01  3.205639614227E-01  3.611214178207E-01
H30 -2.138990722529E-01 -3.205639614226E-01 -3.611214178207E-01
H31  1.803490970458E-01  3.415039139904E-01  2.028046614670E-01
H32 -1.803490970458E-01 -3.415039139904E-01 -2.028046614670E-01
H33  1.446689485765E-01  3.637982050530E-01  4.455755841685E-02
H34 -1.446689485765E-01 -3.637982050530E-01 -4.455755841685E-02
H35 -1.081919946269E-01 -3.864871303868E-01  1.136380373250E-01
H36  1.081919946269E-01  3.864871303868E-01 -1.136380373250E-01
C37 -4.414597271665E-01 -4.249513925438E-01  3.987769639737E-01
C38  4.414597271665E-01  4.249513925438E-01 -3.987769639737E-01
C39 -4.985846525664E-01 -3.179317230070E-01  3.265841023560E-01
C40  4.985846525664E-01  3.179317230070E-01 -3.265841023560E-01
C41 -4.822094450987E-01 -4.124993486308E-01  2.411695202778E-01
C42  4.822094450987E-01  4.124993486308E-01 -2.411695202778E-01
C43  4.613574318181E-01 -3.069059641488E-01  1.666897459339E-01
C44 -4.613574318181E-01  3.069059641488E-01 -1.666897459339E-01
C45  4.792329339827E-01 -4.001566745245E-01  8.295461293306E-02
C46 -4.792329339827E-01  4.001566745245E-01 -8.295461293306E-02
C47  4.233474023785E-01 -2.938993266288E-01  7.550134079150E-03
C48 -4.233474023785E-01  2.938993266288E-01 -7.550134079150E-03
C49 -4.419187006544E-01  3.869238557397E-01  7.514164173684E-02
C50  4.419187006544E-01 -3.869238557397E-01 -7.514164173684E-02
C51 -3.856224709782E-01  2.808356425434E-01  1.516066436713E-01
C52  3.856224709782E-01 -2.808356425434E-01 -1.516066436713E-01
C53 -4.036704960331E-01  3.745633207346E-01  2.333628541119E-01
C54  4.036704960331E-01 -3.745633207346E-01 -2.333628541119E-01
C55 -3.460363238094E-01  2.685131887713E-01  3.114589324972E-01
C56  3.460363238094E-01 -2.685131887713E-01 -3.114589324972E-01
C57 -3.643343438573E-01  3.650393404074E-01  3.910612810654E-01
C58  3.643343438573E-01 -3.650393404074E-01 -3.910612810654E-01
H59 -4.536306971486E-01 -3.506931328377E-01  4.630950206330E-01
H60  4.536306971486E-01  3.506931328377E-01 -4.630950206330E-01
H61  4.431406752304E-01 -1.585615258520E-01  3.325431122726E-01
H62 -4.431406752304E-01  1.585615258520E-01 -3.325431122726E-01
H63  4.026739705221E-01 -1.476963497362E-01  1.725912110972E-01
H64 -4.026739705221E-01  1.476963497362E-01 -1.725912110972E-01
H65  3.645967518785E-01 -1.347353698160E-01  1.344266501925E-02
H66 -3.645967518785E-01  1.347353698160E-01 -1.344266501925E-02
H67 -3.268286916977E-01  1.216539158794E-01  1.457969706648E-01
H68  3.268286916977E-01 -1.216539158794E-01 -1.457969706648E-01
H69 -2.870738813507E-01  1.095567224274E-01  3.056974662712E-01
H70  2.870738813507E-01 -1.095567224274E-01 -3.056974662712E-01
H71 -3.199020593278E-01  2.834409787536E-01  4.496950138020E-01
H72  3.199020593278E-01 -2.834409787536E-01 -4.496950138020E-01


#===END

data_OPT_STEP_65

_symmetry_space_group_name_H-M 'P 1'
_cell_length_a      8.30003979
_cell_length_b      6.18383908
_cell_length_c     15.84693388
_cell_angle_alpha   98.886036
_cell_angle_beta  107.719605
_cell_angle_gamma   87.755279

loop_
_atom_site_label
_atom_site_fract_x
_atom_site_fract_y
_atom_site_fract_z
C1  1.301312982254E-01  4.861475054577E-02  4.050148458365E-01
C2 -1.301312982254E-01 -4.861475054577E-02 -4.050148458365E-01
C3 -9.324789313347E-03 -2.511236747696E-01  2.916126899000E-01
C4  9.324789313347E-03  2.511236747696E-01 -2.916126899000E-01
C5  4.795155361822E-02 -1.607518658308E-01  3.793536724299E-01
C6 -4.795155361822E-02  1.607518658308E-01 -3.793536724299E-01
C7  1.527222754587E-01  1.610401571759E-01  3.421111534387E-01
C8 -1.527222754587E-01 -1.610401571759E-01 -3.421111534387E-01
C9  9.533877558800E-02  7.264105240162E-02  2.487737689866E-01
C10 -9.533877558800E-02 -7.264105240162E-02 -2.487737689866E-01
C11  1.175141308682E-01  1.829781702708E-01  1.834042953440E-01
C12 -1.175141308682E-01 -1.829781702708E-01 -1.834042953440E-01
C13  6.004390298268E-02  9.487745128003E-02  9.162262281889E-02
C14 -6.004390298268E-02 -9.487745128003E-02 -9.162262281889E-02
C15  8.178490329503E-02  2.053041802099E-01  2.517547720258E-02
C16 -8.178490329503E-02 -2.053041802099E-01 -2.517547720258E-02
C17 -2.417434431893E-02 -1.171487148245E-01  6.562288987942E-02
C18  2.417434431893E-02  1.171487148245E-01 -6.562288987942E-02
C19 -4.548208836449E-02 -2.278536012339E-01  1.330410168503E-01
C20  4.548208836449E-02  2.278536012339E-01 -1.330410168503E-01
C21  1.169280712122E-02 -1.395048801565E-01  2.228016969739E-01
C22 -1.169280712122E-02  1.395048801565E-01 -2.228016969739E-01
H23  1.745416786986E-01  1.173991787596E-01  4.753685324055E-01
H24 -1.745416786986E-01 -1.173991787596E-01 -4.753685324055E-01
H25 -7.192579869639E-02 -4.095799427213E-01  2.721930431859E-01
H26  7.192579869639E-02  4.095799427213E-01 -2.721930431859E-01
H27  3.106158864687E-02 -2.473945749851E-01  4.305792971335E-01
H28 -3.106158864687E-02  2.473945749851E-01 -4.305792971335E-01
H29  2.138436180670E-01  3.205882955130E-01  3.610655981256E-01
H30 -2.138436180670E-01 -3.205882955130E-01 -3.610655981256E-01
H31  1.803021548558E-01  3.414907279453E-01  2.027607099871E-01
H32 -1.803021548558E-01 -3.414907279453E-01 -2.027607099871E-01
H33  1.446154662118E-01  3.637557335322E-01  4.452168293303E-02
H34 -1.446154662118E-01 -3.637557335322E-01 -4.452168293303E-02
H35 -1.081184489671E-01 -3.864268187051E-01  1.136641156856E-01
H36  1.081184489671E-01  3.864268187051E-01 -1.136641156856E-01
C37 -4.414280223185E-01 -4.249166015236E-01  3.987647008535E-01
C38  4.414280223185E-01  4.249166015236E-01 -3.987647008535E-01
C39 -4.985277133352E-01 -3.179153457837E-01  3.265943326556E-01
C40  4.985277133352E-01  3.179153457837E-01 -3.265943326556E-01
C41 -4.821712330522E-01 -4.124764617304E-01  2.411718089538E-01
C42  4.821712330522E-01  4.124764617304E-01 -2.411718089538E-01
C43  4.614039228646E-01 -3.069110757761E-01  1.667104189740E-01
C44 -4.614039228646E-01  3.069110757761E-01 -1.667104189740E-01
C45  4.792595125015E-01 -4.001581667534E-01  8.296605911249E-02
C46 -4.792595125015E-01  4.001581667534E-01 -8.296605911249E-02
C47  4.233825773214E-01 -2.939297707856E-01  7.579508561868E-03
C48 -4.233825773214E-01  2.939297707856E-01 -7.579508561868E-03
C49 -4.419232154071E-01  3.869565756857E-01  7.512385181515E-02
C50  4.419232154071E-01 -3.869565756857E-01 -7.512385181515E-02
C51 -3.856399105792E-01  2.808943550819E-01  1.515696679351E-01
C52  3.856399105792E-01 -2.808943550819E-01 -1.515696679351E-01
C53 -4.036708153400E-01  3.746159823424E-01  2.333343181234E-01
C54  4.036708153400E-01 -3.746159823424E-01 -2.333343181234E-01
C55 -3.460412117221E-01  2.685959242074E-01  3.114116992818E-01
C56  3.460412117221E-01 -2.685959242074E-01 -3.114116992818E-01
C57 -3.643162515023E-01  3.651194372496E-01  3.910232414179E-01
C58  3.643162515023E-01 -3.651194372496E-01 -3.910232414179E-01
H59 -4.535823085739E-01 -3.506626588400E-01  4.630890416595E-01
H60  4.535823085739E-01  3.506626588400E-01 -4.630890416595E-01
H61  4.432121927201E-01 -1.585758711838E-01  3.325747783952E-01
H62 -4.432121927201E-01  1.585758711838E-01 -3.325747783952E-01
H63  4.027422384925E-01 -1.477280216450E-01  1.726343078118E-01
H64 -4.027422384925E-01  1.477280216450E-01 -1.726343078118E-01
H65  3.646458775285E-01 -1.347966210370E-01  1.349293874717E-02
H66 -3.646458775285E-01  1.347966210370E-01 -1.349293874717E-02
H67 -3.268804251755E-01  1.217328887135E-01  1.457353387632E-01
H68  3.268804251755E-01 -1.217328887135E-01 -1.457353387632E-01
H69 -2.870985262173E-01  1.096671400900E-01  3.056289685766E-01
H70  2.870985262173E-01 -1.096671400900E-01 -3.056289685766E-01
H71 -3.198869361039E-01  2.835447874656E-01  4.496425772460E-01
H72  3.198869361039E-01 -2.835447874656E-01 -4.496425772460E-01


#===END

data_OPT_STEP_66

_symmetry_space_group_name_H-M 'P 1'
_cell_length_a      8.29545083
_cell_length_b      6.18602340
_cell_length_c     15.84702341
_cell_angle_alpha   98.889634
_cell_angle_beta  107.693543
_cell_angle_gamma   87.759836

loop_
_atom_site_label
_atom_site_fract_x
_atom_site_fract_y
_atom_site_fract_z
C1  1.301484951576E-01  4.865761863136E-02  4.049826114867E-01
C2 -1.301484951576E-01 -4.865761863136E-02 -4.049826114867E-01
C3 -9.271755722437E-03 -2.510456132958E-01  2.916150785685E-01
C4  9.271755722437E-03  2.510456132958E-01 -2.916150785685E-01
C5  4.798701851223E-02 -1.606703766150E-01  3.793409278545E-01
C6 -4.798701851223E-02  1.606703766150E-01 -3.793409278545E-01
C7  1.527272437032E-01  1.610542821366E-01  3.420744176916E-01
C8 -1.527272437032E-01 -1.610542821366E-01 -3.420744176916E-01
C9  9.533321511780E-02  7.267070281258E-02  2.487504468739E-01
C10 -9.533321511780E-02 -7.267070281258E-02 -2.487504468739E-01
C11  1.174805253801E-01  1.829880435132E-01  1.833746126713E-01
C12 -1.174805253801E-01 -1.829880435132E-01 -1.833746126713E-01
C13  6.001938318506E-02  9.488941388554E-02  9.160734827269E-02
C14 -6.001938318506E-02 -9.488941388554E-02 -9.160734827269E-02
C15  8.174761802727E-02  2.052836696751E-01  2.515434928028E-02
C16 -8.174761802727E-02 -2.052836696751E-01 -2.515434928028E-02
C17 -2.416889326189E-02 -1.171115455262E-01  6.562805518975E-02
C18  2.416889326189E-02  1.171115455262E-01 -6.562805518975E-02
C19 -4.544385975792E-02 -2.277973767378E-01  1.330533210405E-01
C20  4.544385975792E-02  2.277973767378E-01 -1.330533210405E-01
C21  1.173189869973E-02 -1.394570179835E-01  2.227996074123E-01
C22 -1.173189869973E-02  1.394570179835E-01 -2.227996074123E-01
H23  1.745506623439E-01  1.174387271947E-01  4.753251945417E-01
H24 -1.745506623439E-01 -1.174387271947E-01 -4.753251945417E-01
H25 -7.185458603830E-02 -4.094784613675E-01  2.722107688209E-01
H26  7.185458603830E-02  4.094784613675E-01 -2.722107688209E-01
H27  3.111338428912E-02 -2.472920417185E-01  4.305712417216E-01
H28 -3.111338428912E-02  2.472920417185E-01 -4.305712417216E-01
H29  2.138141562900E-01  3.205892819719E-01  3.610143917411E-01
H30 -2.138141562900E-01 -3.205892819719E-01 -3.610143917411E-01
H31  1.802379461730E-01  3.414847448391E-01  2.027148385094E-01
H32 -1.802379461730E-01 -3.414847448391E-01 -2.027148385094E-01
H33  1.445422728248E-01  3.637232869811E-01  4.448368538715E-02
H34 -1.445422728248E-01 -3.637232869811E-01 -4.448368538715E-02
H35 -1.080495635933E-01 -3.863546053203E-01  1.136928114490E-01
H36  1.080495635933E-01  3.863546053203E-01 -1.136928114490E-01
C37 -4.413766808936E-01 -4.248763123428E-01  3.987553815692E-01
C38  4.413766808936E-01  4.248763123428E-01 -3.987553815692E-01
C39 -4.984806052489E-01 -3.179080252085E-01  3.266018358089E-01
C40  4.984806052489E-01  3.179080252085E-01 -3.266018358089E-01
C41 -4.821411916588E-01 -4.124608318260E-01  2.411715645652E-01
C42  4.821411916588E-01  4.124608318260E-01 -2.411715645652E-01
C43  4.614428490481E-01 -3.069215122090E-01  1.667289590894E-01
C44 -4.614428490481E-01  3.069215122090E-01 -1.667289590894E-01
C45  4.792777733088E-01 -4.001637975659E-01  8.297558101205E-02
C46 -4.792777733088E-01  4.001637975659E-01 -8.297558101205E-02
C47  4.234119115950E-01 -2.939617479724E-01  7.607656401812E-03
C48 -4.234119115950E-01  2.939617479724E-01 -7.607656401812E-03
C49 -4.419431862063E-01  3.869788770711E-01  7.510284477716E-02
C50  4.419431862063E-01 -3.869788770711E-01 -7.510284477716E-02
C51 -3.856644833752E-01  2.809453312255E-01  1.515310430584E-01
C52  3.856644833752E-01 -2.809453312255E-01 -1.515310430584E-01
C53 -4.036702704402E-01  3.746652546779E-01  2.333051341412E-01
C54  4.036702704402E-01 -3.746652546779E-01 -2.333051341412E-01
C55 -3.460486034711E-01  2.686710101906E-01  3.113632338362E-01
C56  3.460486034711E-01 -2.686710101906E-01 -3.113632338362E-01
C57 -3.642969379740E-01  3.651917268205E-01  3.909844465373E-01
C58  3.642969379740E-01 -3.651917268205E-01 -3.909844465373E-01
H59 -4.535274189153E-01 -3.506351848092E-01  4.630846822156E-01
H60  4.535274189153E-01  3.506351848092E-01 -4.630846822156E-01
H61  4.432906596604E-01 -1.585911618967E-01  3.326056245802E-01
H62 -4.432906596604E-01  1.585911618967E-01 -3.326056245802E-01
H63  4.028039259139E-01 -1.477638861672E-01  1.726745441694E-01
H64 -4.028039259139E-01  1.477638861672E-01 -1.726745441694E-01
H65  3.647062691182E-01 -1.348499986123E-01  1.354409549307E-02
H66 -3.647062691182E-01  1.348499986123E-01 -1.354409549307E-02
H67 -3.269215104193E-01  1.218134628807E-01  1.456764926548E-01
H68  3.269215104193E-01 -1.218134628807E-01 -1.456764926548E-01
H69 -2.871230519730E-01  1.097715656874E-01  3.055603897732E-01
H70  2.871230519730E-01 -1.097715656874E-01 -3.055603897732E-01
H71 -3.198654617637E-01  2.836416908621E-01  4.495898241606E-01
H72  3.198654617637E-01 -2.836416908621E-01 -4.495898241606E-01


#===END

data_OPT_STEP_67

_symmetry_space_group_name_H-M 'P 1'
_cell_length_a      8.29083351
_cell_length_b      6.18815576
_cell_length_c     15.84703322
_cell_angle_alpha   98.892630
_cell_angle_beta  107.667258
_cell_angle_gamma   87.763722

loop_
_atom_site_label
_atom_site_fract_x
_atom_site_fract_y
_atom_site_fract_z
C1  1.301582485726E-01  4.870937647369E-02  4.049510437205E-01
C2 -1.301582485726E-01 -4.870937647369E-02 -4.049510437205E-01
C3 -9.217093419319E-03 -2.509684538857E-01  2.916207573067E-01
C4  9.217093419319E-03  2.509684538857E-01 -2.916207573067E-01
C5  4.803571447192E-02 -1.605965779655E-01  3.793320308884E-01
C6 -4.803571447192E-02  1.605965779655E-01 -3.793320308884E-01
C7  1.527112002247E-01  1.610860157180E-01  3.420357099744E-01
C8 -1.527112002247E-01 -1.610860157180E-01 -3.420357099744E-01
C9  9.532567531502E-02  7.270274987830E-02  2.487262930546E-01
C10 -9.532567531502E-02 -7.270274987830E-02 -2.487262930546E-01
C11  1.174434645039E-01  1.830000609742E-01  1.833425684021E-01
C12 -1.174434645039E-01 -1.830000609742E-01 -1.833425684021E-01
C13  5.999405655289E-02  9.489772015346E-02  9.159049705488E-02
C14 -5.999405655289E-02 -9.489772015346E-02 -9.159049705488E-02
C15  8.169819391381E-02  2.052691124314E-01  2.513088411592E-02
C16 -8.169819391381E-02 -2.052691124314E-01 -2.513088411592E-02
C17 -2.413869741128E-02 -1.170891189579E-01  6.563600377052E-02
C18  2.413869741127E-02  1.170891189579E-01 -6.563600377052E-02
C19 -4.540029398924E-02 -2.277459958415E-01  1.330666248226E-01
C20  4.540029398924E-02  2.277459958415E-01 -1.330666248226E-01
C21  1.175205293034E-02 -1.393957746898E-01  2.227975269136E-01
C22 -1.175205293034E-02  1.393957746898E-01 -2.227975269136E-01
H23  1.745538314593E-01  1.174861217797E-01  4.752825487079E-01
H24 -1.745538314593E-01 -1.174861217797E-01 -4.752825487079E-01
H25 -7.176526019763E-02 -4.093876059141E-01  2.722337196178E-01
H26  7.176526019763E-02  4.093876059141E-01 -2.722337196178E-01
H27  3.118523175132E-02 -2.472039718403E-01  4.305678909554E-01
H28 -3.118523175132E-02  2.472039718403E-01 -4.305678909554E-01
H29  2.137767137702E-01  3.205967229794E-01  3.609592385515E-01
H30 -2.137767137702E-01 -3.205967229794E-01 -3.609592385515E-01
H31  1.801904390608E-01  3.414671986525E-01  2.026661993835E-01
H32 -1.801904390608E-01 -3.414671986525E-01 -2.026661993835E-01
H33  1.444740191273E-01  3.636855637275E-01  4.444368482188E-02
H34 -1.444740191273E-01 -3.636855637275E-01 -4.444368482188E-02
H35 -1.079557908706E-01 -3.862995846248E-01  1.137249315561E-01
H36  1.079557908706E-01  3.862995846248E-01 -1.137249315561E-01
C37 -4.413101118207E-01 -4.248338002729E-01  3.987509906047E-01
C38  4.413101118207E-01  4.248338002729E-01 -3.987509906047E-01
C39 -4.984097806331E-01 -3.178916695655E-01  3.266150012343E-01
C40  4.984097806331E-01  3.178916695655E-01 -3.266150012343E-01
C41 -4.821134736682E-01 -4.124509281871E-01  2.411710425178E-01
C42  4.821134736682E-01  4.124509281871E-01 -2.411710425178E-01
C43  4.614804394368E-01 -3.069358558468E-01  1.667473921974E-01
C44 -4.614804394368E-01  3.069358558468E-01 -1.667473921974E-01
C45  4.792957058128E-01 -4.001722162947E-01  8.298509489742E-02
C46 -4.792957058128E-01  4.001722162947E-01 -8.298509489742E-02
C47  4.234424811293E-01 -2.939932397992E-01  7.636589185459E-03
C48 -4.234424811293E-01  2.939932397992E-01 -7.636589185459E-03
C49 -4.419549527455E-01  3.870038773362E-01  7.508303542579E-02
C50  4.419549527455E-01 -3.870038773362E-01 -7.508303542579E-02
C51 -3.857011390592E-01  2.809871783664E-01  1.514892514985E-01
C52  3.857011390592E-01 -2.809871783664E-01 -1.514892514985E-01
C53 -4.036782654678E-01  3.747049188393E-01  2.332742950704E-01
C54  4.036782654678E-01 -3.747049188393E-01 -2.332742950704E-01
C55 -3.460597791198E-01  2.687387097045E-01  3.113149582413E-01
C56  3.460597791198E-01 -2.687387097045E-01 -3.113149582413E-01
C57 -3.642759718940E-01  3.652578877981E-01  3.909479710487E-01
C58  3.642759718940E-01 -3.652578877981E-01 -3.909479710487E-01
H59 -4.534554273014E-01 -3.506059218392E-01  4.630856741961E-01
H60  4.534554273014E-01  3.506059218392E-01 -4.630856741961E-01
H61  4.433602627473E-01 -1.586117366744E-01  3.326362390888E-01
H62 -4.433602627473E-01  1.586117366744E-01 -3.326362390888E-01
H63  4.028696272370E-01 -1.478006657003E-01  1.727165120829E-01
H64 -4.028696272370E-01  1.478006657003E-01 -1.727165120829E-01
H65  3.647584813709E-01 -1.349071752354E-01  1.359538125999E-02
H66 -3.647584813709E-01  1.349071752354E-01 -1.359538125999E-02
H67 -3.269733060633E-01  1.218834795596E-01  1.456139240789E-01
H68  3.269733060633E-01 -1.218834795596E-01 -1.456139240789E-01
H69 -2.871771196848E-01  1.098516260144E-01  3.054865108406E-01
H70  2.871771196848E-01 -1.098516260144E-01 -3.054865108406E-01
H71 -3.198393105945E-01  2.837323262817E-01  4.495410200331E-01
H72  3.198393105945E-01 -2.837323262817E-01 -4.495410200331E-01


#===END

data_OPT_STEP_68

_symmetry_space_group_name_H-M 'P 1'
_cell_length_a      8.28627233
_cell_length_b      6.19029549
_cell_length_c     15.84704740
_cell_angle_alpha   98.896151
_cell_angle_beta  107.641015
_cell_angle_gamma   87.767043

loop_
_atom_site_label
_atom_site_fract_x
_atom_site_fract_y
_atom_site_fract_z
C1  1.301658162471E-01  4.876373766967E-02  4.049171349915E-01
C2 -1.301658162471E-01 -4.876373766967E-02 -4.049171349915E-01
C3 -9.144503196952E-03 -2.509005090419E-01  2.916252616049E-01
C4  9.144503196952E-03  2.509005090419E-01 -2.916252616049E-01
C5  4.809334522732E-02 -1.605270262107E-01  3.793209512185E-01
C6 -4.809334522732E-02  1.605270262107E-01 -3.793209512185E-01
C7  1.526819509224E-01  1.611269995762E-01  3.419947163509E-01
C8 -1.526819509224E-01 -1.611269995762E-01 -3.419947163509E-01
C9  9.532017041382E-02  7.273280062780E-02  2.487011211845E-01
C10 -9.532017041382E-02 -7.273280062780E-02 -2.487011211845E-01
C11  1.174206871753E-01  1.830028110697E-01  1.833114706741E-01
C12 -1.174206871753E-01 -1.830028110697E-01 -1.833114706741E-01
C13  5.999035584442E-02  9.489386914937E-02  9.157493022264E-02
C14 -5.999035584442E-02 -9.489386914937E-02 -9.157493022264E-02
C15  8.167158604290E-02  2.052415758696E-01  2.510959210576E-02
C16 -8.167158604290E-02 -2.052415758696E-01 -2.510959210576E-02
C17 -2.411536792746E-02 -1.170644270264E-01  6.564246031928E-02
C18  2.411536792746E-02  1.170644270264E-01 -6.564246031928E-02
C19 -4.534381154164E-02 -2.277021266059E-01  1.330805170283E-01
C20  4.534381154164E-02  2.277021266059E-01 -1.330805170283E-01
C21  1.180403311301E-02 -1.393538517114E-01  2.227966499256E-01
C22 -1.180403311301E-02  1.393538517114E-01 -2.227966499256E-01
H23  1.745517116947E-01  1.175378937542E-01  4.752375113226E-01
H24 -1.745517116947E-01 -1.175378937542E-01 -4.752375113226E-01
H25 -7.166173018223E-02 -4.093038630592E-01  2.722547752169E-01
H26  7.166173018223E-02  4.093038630592E-01 -2.722547752169E-01
H27  3.125708479885E-02 -2.471135885341E-01  4.305612941651E-01
H28 -3.125708479885E-02  2.471135885341E-01 -4.305612941651E-01
H29  2.137226257184E-01  3.206156479359E-01  3.609011457871E-01
H30 -2.137226257184E-01 -3.206156479359E-01 -3.609011457871E-01
H31  1.801208389621E-01  3.414664035364E-01  2.026175922438E-01
H32 -1.801208389621E-01 -3.414664035364E-01 -2.026175922438E-01
H33  1.444072372937E-01  3.636488100010E-01  4.440412372087E-02
H34 -1.444072372937E-01 -3.636488100010E-01 -4.440412372087E-02
H35 -1.078882658217E-01 -3.862279216967E-01  1.137546767373E-01
H36  1.078882658217E-01  3.862279216967E-01 -1.137546767373E-01
C37 -4.412718005949E-01 -4.248092788710E-01  3.987399530151E-01
C38  4.412718005949E-01  4.248092788710E-01 -3.987399530151E-01
C39 -4.983640576336E-01 -3.178918522089E-01  3.266233300795E-01
C40  4.983640576336E-01  3.178918522089E-01 -3.266233300795E-01
C41 -4.820710636249E-01 -4.124335956080E-01  2.411737657437E-01
C42  4.820710636249E-01  4.124335956080E-01 -2.411737657437E-01
C43  4.615323233042E-01 -3.069420842153E-01  1.667695646342E-01
C44 -4.615323233042E-01  3.069420842153E-01 -1.667695646342E-01
C45  4.793226835646E-01 -4.001753567359E-01  8.299689462467E-02
C46 -4.793226835646E-01  4.001753567359E-01 -8.299689462467E-02
C47  4.234810123597E-01 -2.940197431469E-01  7.668348803028E-03
C48 -4.234810123597E-01  2.940197431469E-01 -7.668348803028E-03
C49 -4.419656903118E-01  3.870292898327E-01  7.506254674436E-02
C50  4.419656903118E-01 -3.870292898327E-01 -7.506254674436E-02
C51 -3.857040760626E-01  2.810453513476E-01  1.514527064433E-01
C52  3.857040760626E-01 -2.810453513476E-01 -1.514527064433E-01
C53 -4.036690367253E-01  3.747539383665E-01  2.332461076521E-01
C54  4.036690367253E-01 -3.747539383665E-01 -2.332461076521E-01
C55 -3.460489542216E-01  2.688163044442E-01  3.112687048602E-01
C56  3.460489542216E-01 -2.688163044442E-01 -3.112687048602E-01
C57 -3.642456605688E-01  3.653292571084E-01  3.909111819043E-01
C58  3.642456605688E-01 -3.653292571084E-01 -3.909111819043E-01
H59 -4.534005576926E-01 -3.505868780495E-01  4.630819742600E-01
H60  4.534005576926E-01  3.505868780495E-01 -4.630819742600E-01
H61  4.434459626549E-01 -1.586280996006E-01  3.326713565279E-01
H62 -4.434459626549E-01  1.586280996006E-01 -3.326713565279E-01
H63  4.029426076839E-01 -1.478317446264E-01  1.727617249119E-01
H64 -4.029426076839E-01  1.478317446264E-01 -1.727617249119E-01
H65  3.648162374839E-01 -1.349595575456E-01  1.364989124413E-02
H66 -3.648162374839E-01  1.349595575456E-01 -1.364989124413E-02
H67 -3.270120548974E-01  1.219581225068E-01  1.455519111751E-01
H68  3.270120548974E-01 -1.219581225068E-01 -1.455519111751E-01
H69 -2.871717715044E-01  1.099623733334E-01  3.054210504964E-01
H70  2.871717715044E-01 -1.099623733334E-01 -3.054210504964E-01
H71 -3.198158939299E-01  2.838223111889E-01  4.494890197048E-01
H72  3.198158939299E-01 -2.838223111889E-01 -4.494890197048E-01


#===END

data_OPT_STEP_69

_symmetry_space_group_name_H-M 'P 1'
_cell_length_a      8.28170578
_cell_length_b      6.19240609
_cell_length_c     15.84705408
_cell_angle_alpha   98.899328
_cell_angle_beta  107.613983
_cell_angle_gamma   87.770125

loop_
_atom_site_label
_atom_site_fract_x
_atom_site_fract_y
_atom_site_fract_z
C1  1.301764199336E-01  4.881470774637E-02  4.048846333911E-01
C2 -1.301764199336E-01 -4.881470774637E-02 -4.048846333911E-01
C3 -9.069851063911E-03 -2.508330242918E-01  2.916318694509E-01
C4  9.069851063911E-03  2.508330242918E-01 -2.916318694509E-01
C5  4.814250406733E-02 -1.604507217319E-01  3.793110440755E-01
C6 -4.814250406733E-02  1.604507217319E-01 -3.793110440755E-01
C7  1.526881191066E-01  1.611425737037E-01  3.419571717100E-01
C8 -1.526881191066E-01 -1.611425737037E-01 -3.419571717100E-01
C9  9.533963300335E-02  7.274797811903E-02  2.486791066143E-01
C10 -9.533963300335E-02 -7.274797811903E-02 -2.486791066143E-01
C11  1.174075424358E-01  1.830000159616E-01  1.832815956287E-01
C12 -1.174075424358E-01 -1.830000159616E-01 -1.832815956287E-01
C13  5.998263194575E-02  9.489350973689E-02  9.156020905885E-02
C14 -5.998263194575E-02 -9.489350973689E-02 -9.156020905885E-02
C15  8.162938414558E-02  2.052222443699E-01  2.508564471139E-02
C16 -8.162938414558E-02 -2.052222443699E-01 -2.508564471139E-02
C17 -2.407967748015E-02 -1.170464175104E-01  6.565119797857E-02
C18  2.407967748015E-02  1.170464175104E-01 -6.565119797857E-02
C19 -4.528054471199E-02 -2.276606554420E-01  1.330964971212E-01
C20  4.528054471199E-02  2.276606554420E-01 -1.330964971212E-01
C21  1.185384203634E-02 -1.393106638509E-01  2.227970548890E-01
C22 -1.185384203634E-02  1.393106638509E-01 -2.227970548890E-01
H23  1.745413432596E-01  1.175944234762E-01  4.751923898239E-01
H24 -1.745413432596E-01 -1.175944234762E-01 -4.751923898239E-01
H25 -7.156917902088E-02 -4.092120259961E-01  2.722783307134E-01
H26  7.156917902088E-02  4.092120259961E-01 -2.722783307134E-01
H27  3.131576908345E-02 -2.470107759109E-01  4.305562427310E-01
H28 -3.131576908345E-02  2.470107759109E-01 -4.305562427310E-01
H29  2.136926875431E-01  3.206182977164E-01  3.608485121616E-01
H30 -2.136926875431E-01 -3.206182977164E-01 -3.608485121616E-01
H31  1.800814146804E-01  3.414431492667E-01  2.025694602898E-01
H32 -1.800814146804E-01 -3.414431492667E-01 -2.025694602898E-01
H33  1.443437092125E-01  3.636067496146E-01  4.436250562499E-02
H34 -1.443437092125E-01 -3.636067496146E-01 -4.436250562499E-02
H35 -1.078055556129E-01 -3.861628780781E-01  1.137877528589E-01
H36  1.078055556129E-01  3.861628780781E-01 -1.137877528589E-01
C37 -4.412191339278E-01 -4.247810417443E-01  3.987315834268E-01
C38  4.412191339278E-01  4.247810417443E-01 -3.987315834268E-01
C39 -4.982898018259E-01 -3.178765873050E-01  3.266379871443E-01
C40  4.982898018259E-01  3.178765873050E-01 -3.266379871443E-01
C41 -4.820207407389E-01 -4.124123312462E-01  2.411786852472E-01
C42  4.820207407389E-01  4.124123312462E-01 -2.411786852472E-01
C43  4.615855463923E-01 -3.069442789800E-01  1.667925509830E-01
C44 -4.615855463923E-01  3.069442789800E-01 -1.667925509830E-01
C45  4.793497941788E-01 -4.001755473799E-01  8.300872190340E-02
C46 -4.793497941788E-01  4.001755473799E-01 -8.300872190340E-02
C47  4.235033200667E-01 -2.940502155576E-01  7.695963579851E-03
C48 -4.235033200667E-01  2.940502155576E-01 -7.695963579851E-03
C49 -4.419711138910E-01  3.870548890772E-01  7.504398865642E-02
C50  4.419711138910E-01 -3.870548890772E-01 -7.504398865642E-02
C51 -3.857208704308E-01  2.810919076546E-01  1.514149343878E-01
C52  3.857208704308E-01 -2.810919076546E-01 -1.514149343878E-01
C53 -4.036564605524E-01  3.747996234698E-01  2.332188334754E-01
C54  4.036564605524E-01 -3.747996234698E-01 -2.332188334754E-01
C55 -3.460560809501E-01  2.688771691526E-01  3.112189179007E-01
C56  3.460560809501E-01 -2.688771691526E-01 -3.112189179007E-01
C57 -3.642220490076E-01  3.653880374026E-01  3.908719374601E-01
C58  3.642220490076E-01 -3.653880374026E-01 -3.908719374601E-01
H59 -4.533464837796E-01 -3.505755005394E-01  4.630776207906E-01
H60  4.533464837796E-01  3.505755005394E-01 -4.630776207906E-01
H61  4.435282496133E-01 -1.586429849523E-01  3.327067802526E-01
H62 -4.435282496133E-01  1.586429849523E-01 -3.327067802526E-01
H63  4.030172000749E-01 -1.478565192317E-01  1.728067386120E-01
H64 -4.030172000749E-01  1.478565192317E-01 -1.728067386120E-01
H65  3.648716396993E-01 -1.350061866038E-01  1.370106424706E-02
H66 -3.648716396993E-01  1.350061866038E-01 -1.370106424706E-02
H67 -3.270484750428E-01  1.220292290966E-01  1.454925804421E-01
H68  3.270484750428E-01 -1.220292290966E-01 -1.454925804421E-01
H69 -2.871982448544E-01  1.100481104508E-01  3.053496265808E-01
H70  2.871982448544E-01 -1.100481104508E-01 -3.053496265808E-01
H71 -3.197954855408E-01  2.838985749763E-01  4.494336222182E-01
H72  3.197954855408E-01 -2.838985749763E-01 -4.494336222182E-01


#===END

data_OPT_STEP_70

_symmetry_space_group_name_H-M 'P 1'
_cell_length_a      8.27715092
_cell_length_b      6.19452244
_cell_length_c     15.84696899
_cell_angle_alpha   98.901489
_cell_angle_beta  107.586785
_cell_angle_gamma   87.773561

loop_
_atom_site_label
_atom_site_fract_x
_atom_site_fract_y
_atom_site_fract_z
C1  1.301988314021E-01  4.886406421398E-02  4.048549976475E-01
C2 -1.301988314021E-01 -4.886406421398E-02 -4.048549976475E-01
C3 -9.008683008436E-03 -2.507524969757E-01  2.916418216455E-01
C4  9.008683008436E-03  2.507524969757E-01 -2.916418216455E-01
C5  4.819764802531E-02 -1.603726457802E-01  3.793060865124E-01
C6 -4.819764802531E-02  1.603726457802E-01 -3.793060865124E-01
C7  1.526712861526E-01  1.611779773734E-01  3.419181100607E-01
C8 -1.526712861526E-01 -1.611779773734E-01 -3.419181100607E-01
C9  9.533130615086E-02  7.278318265241E-02  2.486552298882E-01
C10 -9.533130615086E-02 -7.278318265241E-02 -2.486552298882E-01
C11  1.173787236700E-01  1.830072159768E-01  1.832491686362E-01
C12 -1.173787236700E-01 -1.830072159768E-01 -1.832491686362E-01
C13  5.996441675781E-02  9.489858486116E-02  9.154330874669E-02
C14 -5.996441675781E-02 -9.489858486116E-02 -9.154330874669E-02
C15  8.158754486230E-02  2.052016220742E-01  2.506043074105E-02
C16 -8.158754486230E-02 -2.052016220742E-01 -2.506043074105E-02
C17 -2.405569749699E-02 -1.170180926868E-01  6.566033383472E-02
C18  2.405569749699E-02  1.170180926868E-01 -6.566033383472E-02
C19 -4.523295736699E-02 -2.276066156893E-01  1.331138264554E-01
C20  4.523295736699E-02  2.276066156893E-01 -1.331138264554E-01
C21  1.189021331419E-02 -1.392544340752E-01  2.227989102853E-01
C22 -1.189021331419E-02  1.392544340752E-01 -2.227989102853E-01
H23  1.745510227129E-01  1.176449648222E-01  4.751508235192E-01
H24 -1.745510227129E-01 -1.176449648222E-01 -4.751508235192E-01
H25 -7.147630765559E-02 -4.091146051881E-01  2.723069227420E-01
H26  7.147630765559E-02  4.091146051881E-01 -2.723069227420E-01
H27  3.139480918235E-02 -2.469171563842E-01  4.305581693140E-01
H28 -3.139480918235E-02  2.469171563842E-01 -4.305581693140E-01
H29  2.136507546794E-01  3.206304980179E-01  3.607909259852E-01
H30 -2.136507546794E-01 -3.206304980179E-01 -3.607909259852E-01
H31  1.800214390580E-01  3.414341665857E-01  2.025180331110E-01
H32 -1.800214390580E-01 -3.414341665857E-01 -2.025180331110E-01
H33  1.442782106525E-01  3.635645135552E-01  4.431842446695E-02
H34 -1.442782106525E-01 -3.635645135552E-01 -4.431842446695E-02
H35 -1.077221538602E-01 -3.860945415622E-01  1.138248066746E-01
H36  1.077221538602E-01  3.860945415622E-01 -1.138248066746E-01
C37 -4.411590508988E-01 -4.247596806779E-01  3.987254124048E-01
C38  4.411590508988E-01  4.247596806779E-01 -3.987254124048E-01
C39 -4.982317417618E-01 -3.178810786611E-01  3.266487921286E-01
C40  4.982317417618E-01  3.178810786611E-01 -3.266487921286E-01
C41 -4.819866629384E-01 -4.124089562739E-01  2.411796434383E-01
C42  4.819866629384E-01  4.124089562739E-01 -2.411796434383E-01
C43  4.616309865853E-01 -3.069604593596E-01  1.668130597539E-01
C44 -4.616309865853E-01  3.069604593596E-01 -1.668130597539E-01
C45  4.793730312937E-01 -4.001845406405E-01  8.301966408205E-02
C46 -4.793730312937E-01  4.001845406405E-01 -8.301966408205E-02
C47  4.235487672680E-01 -2.940729794706E-01  7.728594312796E-03
C48 -4.235487672680E-01  2.940729794706E-01 -7.728594312796E-03
C49 -4.419786637816E-01  3.870779790397E-01  7.502453552760E-02
C50  4.419786637816E-01 -3.870779790397E-01 -7.502453552760E-02
C51 -3.857417918778E-01  2.811344258898E-01  1.513751116555E-01
C52  3.857417918778E-01 -2.811344258898E-01 -1.513751116555E-01
C53 -4.036521836408E-01  3.748348586895E-01  2.331897912420E-01
C54  4.036521836408E-01 -3.748348586895E-01 -2.331897912420E-01
C55 -3.460480810862E-01  2.689385383043E-01  3.111725728241E-01
C56  3.460480810862E-01 -2.689385383043E-01 -3.111725728241E-01
C57 -3.642003765371E-01  3.654348793937E-01  3.908345553423E-01
C58  3.642003765371E-01 -3.654348793937E-01 -3.908345553423E-01
H59 -4.532713577587E-01 -3.505638815903E-01  4.630791110868E-01
H60  4.532713577587E-01  3.505638815903E-01 -4.630791110868E-01
H61  4.436156230947E-01 -1.586695887034E-01  3.327412973552E-01
H62 -4.436156230947E-01  1.586695887034E-01 -3.327412973552E-01
H63  4.030816096605E-01 -1.478990294742E-01  1.728494700351E-01
H64 -4.030816096605E-01  1.478990294742E-01 -1.728494700351E-01
H65  3.649185563267E-01 -1.350649102307E-01  1.375280746564E-02
H66 -3.649185563267E-01  1.350649102307E-01 -1.375280746564E-02
H67 -3.270876622163E-01  1.220983896021E-01  1.454309808206E-01
H68  3.270876622163E-01 -1.220983896021E-01 -1.454309808206E-01
H69 -2.872232128800E-01  1.101273313956E-01  3.052790631454E-01
H70  2.872232128800E-01 -1.101273313956E-01 -3.052790631454E-01
H71 -3.197679570278E-01  2.839662724577E-01  4.493836178792E-01
H72  3.197679570278E-01 -2.839662724577E-01 -4.493836178792E-01


#===END

data_OPT_STEP_71

_symmetry_space_group_name_H-M 'P 1'
_cell_length_a      8.27261567
_cell_length_b      6.19661601
_cell_length_c     15.84686928
_cell_angle_alpha   98.903855
_cell_angle_beta  107.559239
_cell_angle_gamma   87.776750

loop_
_atom_site_label
_atom_site_fract_x
_atom_site_fract_y
_atom_site_fract_z
C1  1.302084268701E-01  4.891639177294E-02  4.048236515533E-01
C2 -1.302084268701E-01 -4.891639177294E-02 -4.048236515533E-01
C3 -8.941774101190E-03 -2.506800923276E-01  2.916510130297E-01
C4  8.941774101190E-03  2.506800923276E-01 -2.916510130297E-01
C5  4.825827316470E-02 -1.603050622959E-01  3.793000626632E-01
C6 -4.825827316470E-02  1.603050622959E-01 -3.793000626632E-01
C7  1.526556972519E-01  1.612084558873E-01  3.418782665093E-01
C8 -1.526556972519E-01 -1.612084558873E-01 -3.418782665093E-01
C9  9.532676116214E-02  7.281305010500E-02  2.486308414916E-01
C10 -9.532676116214E-02 -7.281305010500E-02 -2.486308414916E-01
C11  1.173426514428E-01  1.830180557304E-01  1.832156787270E-01
C12 -1.173426514428E-01 -1.830180557304E-01 -1.832156787270E-01
C13  5.994804803902E-02  9.490125876751E-02  9.152584597678E-02
C14 -5.994804803902E-02 -9.490125876751E-02 -9.152584597678E-02
C15  8.155272809677E-02  2.051763382556E-01  2.503596685794E-02
C16 -8.155272809677E-02 -2.051763382556E-01 -2.503596685794E-02
C17 -2.403129735211E-02 -1.169907320228E-01  6.566892554725E-02
C18  2.403129735211E-02  1.169907320228E-01 -6.566892554725E-02
C19 -4.518450280438E-02 -2.275547872495E-01  1.331303946823E-01
C20  4.518450280438E-02  2.275547872495E-01 -1.331303946823E-01
C21  1.192818734227E-02 -1.392018301641E-01  2.227998886273E-01
C22 -1.192818734227E-02  1.392018301641E-01 -2.227998886273E-01
H23  1.745675732617E-01  1.176836299043E-01  4.751089226781E-01
H24 -1.745675732617E-01 -1.176836299043E-01 -4.751089226781E-01
H25 -7.137094448413E-02 -4.090294889382E-01  2.723350256126E-01
H26  7.137094448413E-02  4.090294889382E-01 -2.723350256126E-01
H27  3.146974528226E-02 -2.468298773804E-01  4.305578840386E-01
H28 -3.146974528226E-02  2.468298773804E-01 -4.305578840386E-01
H29  2.136147571669E-01  3.206344316122E-01  3.607327383444E-01
H30 -2.136147571669E-01 -3.206344316122E-01 -3.607327383444E-01
H31  1.799674729809E-01  3.414196446320E-01  2.024662601222E-01
H32 -1.799674729809E-01 -3.414196446320E-01 -2.024662601222E-01
H33  1.441989862702E-01  3.635318897309E-01  4.427359222968E-02
H34 -1.441989862702E-01 -3.635318897309E-01 -4.427359222968E-02
H35 -1.076330958939E-01 -3.860315372927E-01  1.138614052043E-01
H36  1.076330958939E-01  3.860315372927E-01 -1.138614052043E-01
C37 -4.410979242403E-01 -4.247390804602E-01  3.987199519571E-01
C38  4.410979242403E-01  4.247390804602E-01 -3.987199519571E-01
C39 -4.981682350562E-01 -3.178818244512E-01  3.266612941718E-01
C40  4.981682350562E-01  3.178818244512E-01 -3.266612941718E-01
C41 -4.819528487345E-01 -4.124044916503E-01  2.411806104949E-01
C42  4.819528487345E-01  4.124044916503E-01 -2.411806104949E-01
C43  4.616703303472E-01 -3.069785151967E-01  1.668327784471E-01
C44 -4.616703303472E-01  3.069785151967E-01 -1.668327784471E-01
C45  4.793927745354E-01 -4.001938852286E-01  8.303017596567E-02
C46 -4.793927745354E-01  4.001938852286E-01 -8.303017596567E-02
C47  4.235628470062E-01 -2.941121864306E-01  7.755763186445E-03
C48 -4.235628470062E-01  2.941121864306E-01 -7.755763186445E-03
C49 -4.419936033107E-01  3.870979354079E-01  7.500310495793E-02
C50  4.419936033107E-01 -3.870979354079E-01 -7.500310495793E-02
C51 -3.857551315344E-01  2.811797096479E-01  1.513357963010E-01
C52  3.857551315344E-01 -2.811797096479E-01 -1.513357963010E-01
C53 -4.036506373206E-01  3.748690754478E-01  2.331598437396E-01
C54  4.036506373206E-01 -3.748690754478E-01 -2.331598437396E-01
C55 -3.460456131937E-01  2.689971137337E-01  3.111249682163E-01
C56  3.460456131937E-01 -2.689971137337E-01 -3.111249682163E-01
C57 -3.641535948000E-01  3.654956478263E-01  3.908013814162E-01
C58  3.641535948000E-01 -3.654956478263E-01 -3.908013814162E-01
H59 -4.531955837500E-01 -3.505548509091E-01  4.630819375035E-01
H60  4.531955837500E-01  3.505548509091E-01 -4.630819375035E-01
H61  4.436826065344E-01 -1.587030656750E-01  3.327736467261E-01
H62 -4.436826065344E-01  1.587030656750E-01 -3.327736467261E-01
H63  4.031520996010E-01 -1.479361357281E-01  1.728942516171E-01
H64 -4.031520996010E-01  1.479361357281E-01 -1.728942516171E-01
H65  3.649790836229E-01 -1.351150320076E-01  1.380786200402E-02
H66 -3.649790836229E-01  1.351150320076E-01 -1.380786200402E-02
H67 -3.271303145882E-01  1.221629974671E-01  1.453671066443E-01
H68  3.271303145882E-01 -1.221629974671E-01 -1.453671066443E-01
H69 -2.872345320124E-01  1.102131095534E-01  3.052104192554E-01
H70  2.872345320124E-01 -1.102131095534E-01 -3.052104192554E-01
H71 -3.197257157716E-01  2.840419697662E-01  4.493360469771E-01
H72  3.197257157716E-01 -2.840419697662E-01 -4.493360469771E-01


#===END

data_OPT_STEP_72

_symmetry_space_group_name_H-M 'P 1'
_cell_length_a      8.26809891
_cell_length_b      6.19867166
_cell_length_c     15.84676519
_cell_angle_alpha   98.906175
_cell_angle_beta  107.531139
_cell_angle_gamma   87.779254

loop_
_atom_site_label
_atom_site_fract_x
_atom_site_fract_y
_atom_site_fract_z
C1  1.302283838011E-01  4.895783167863E-02  4.047920842378E-01
C2 -1.302283838011E-01 -4.895783167863E-02 -4.047920842378E-01
C3 -8.859740839220E-03 -2.506162006240E-01  2.916617105769E-01
C4  8.859740839220E-03  2.506162006240E-01 -2.916617105769E-01
C5  4.831373660440E-02 -1.602345687497E-01  3.792931430014E-01
C6 -4.831373660440E-02  1.602345687497E-01 -3.792931430014E-01
C7  1.526594983296E-01  1.612229830474E-01  3.418395773030E-01
C8 -1.526594983296E-01 -1.612229830474E-01 -3.418395773030E-01
C9  9.534626567383E-02  7.282669318258E-02  2.486084337280E-01
C10 -9.534626567383E-02 -7.282669318258E-02 -2.486084337280E-01
C11  1.173354443510E-01  1.830092366820E-01  1.831844726299E-01
C12 -1.173354443510E-01 -1.830092366819E-01 -1.831844726299E-01
C13  5.994398511401E-02  9.489755435979E-02  9.151044117662E-02
C14 -5.994398511401E-02 -9.489755435979E-02 -9.151044117662E-02
C15  8.151061545375E-02  2.051552182066E-01  2.501006986976E-02
C16 -8.151061545375E-02 -2.051552182066E-01 -2.501006986976E-02
C17 -2.399480055749E-02 -1.169725882555E-01  6.567909031851E-02
C18  2.399480055749E-02  1.169725882555E-01 -6.567909031851E-02
C19 -4.511495612831E-02 -2.275161207326E-01  1.331496174967E-01
C20  4.511495612831E-02  2.275161207326E-01 -1.331496174967E-01
C21  1.198669920572E-02 -1.391636851324E-01  2.228029607053E-01
C22 -1.198669920572E-02  1.391636851324E-01 -2.228029607053E-01
H23  1.745612214109E-01  1.177324664569E-01  4.750640408330E-01
H24 -1.745612214109E-01 -1.177324664569E-01 -4.750640408330E-01
H25 -7.126972089039E-02 -4.089407793629E-01  2.723644888914E-01
H26  7.126972089039E-02  4.089407793629E-01 -2.723644888914E-01
H27  3.153754673880E-02 -2.467371465780E-01  4.305564672099E-01
H28 -3.153754673880E-02  2.467371465780E-01 -4.305564672099E-01
H29  2.135865903070E-01  3.206317157319E-01  3.606773135828E-01
H30 -2.135865903070E-01 -3.206317157319E-01 -3.606773135828E-01
H31  1.799219237048E-01  3.413983293630E-01  2.024144634343E-01
H32 -1.799219237048E-01 -3.413983293630E-01 -2.024144634343E-01
H33  1.441382059074E-01  3.634851977271E-01  4.422840833560E-02
H34 -1.441382059074E-01 -3.634851977271E-01 -4.422840833560E-02
H35 -1.075489621164E-01 -3.859653812289E-01  1.138990184456E-01
H36  1.075489621164E-01  3.859653812289E-01 -1.138990184456E-01
C37 -4.410369571237E-01 -4.247211787135E-01  3.987147762028E-01
C38  4.410369571237E-01  4.247211787135E-01 -3.987147762028E-01
C39 -4.980920490272E-01 -3.178765592411E-01  3.266781924130E-01
C40  4.980920490272E-01  3.178765592411E-01 -3.266781924130E-01
C41 -4.818957582635E-01 -4.123876672593E-01  2.411880905977E-01
C42  4.818957582635E-01  4.123876672593E-01 -2.411880905977E-01
C43  4.617336584699E-01 -3.069795517193E-01  1.668591722644E-01
C44 -4.617336584699E-01  3.069795517193E-01 -1.668591722644E-01
C45  4.794246046372E-01 -4.001939827031E-01  8.304375359031E-02
C46 -4.794246046372E-01  4.001939827031E-01 -8.304375359031E-02
C47  4.236048081257E-01 -2.941309161473E-01  7.788217087171E-03
C48 -4.236048081257E-01  2.941309161473E-01 -7.788217087171E-03
C49 -4.419968920186E-01  3.871217081733E-01  7.498463953462E-02
C50  4.419968920186E-01 -3.871217081733E-01 -7.498463953462E-02
C51 -3.857679186092E-01  2.812216858561E-01  1.512984743930E-01
C52  3.857679186092E-01 -2.812216858561E-01 -1.512984743930E-01
C53 -4.036322086675E-01  3.749088793107E-01  2.331339352117E-01
C54  4.036322086675E-01 -3.749088793107E-01 -2.331339352117E-01
C55 -3.460392409794E-01  2.690516261185E-01  3.110778914990E-01
C56  3.460392409794E-01 -2.690516261185E-01 -3.110778914990E-01
C57 -3.641294347665E-01  3.655396485243E-01  3.907634659186E-01
C58  3.641294347665E-01 -3.655396485243E-01 -3.907634659186E-01
H59 -4.531301159852E-01 -3.505552587766E-01  4.630814879533E-01
H60  4.531301159852E-01  3.505552587766E-01 -4.630814879533E-01
H61  4.437874961533E-01 -1.587164194494E-01  3.328162472769E-01
H62 -4.437874961533E-01  1.587164194494E-01 -3.328162472769E-01
H63  4.032341228880E-01 -1.479593847458E-01  1.729428398030E-01
H64 -4.032341228880E-01  1.479593847458E-01 -1.729428398030E-01
H65  3.650355810924E-01 -1.351583685554E-01  1.386107611231E-02
H66 -3.650355810924E-01  1.351583685554E-01 -1.386107611231E-02
H67 -3.271627301528E-01  1.222275612450E-01  1.453073475574E-01
H68  3.271627301528E-01 -1.222275612450E-01 -1.453073475574E-01
H69 -2.872538762215E-01  1.102868310556E-01  3.051397086745E-01
H70  2.872538762215E-01 -1.102868310556E-01 -3.051397086745E-01
H71 -3.197043983555E-01  2.841023598529E-01  4.492824292767E-01
H72  3.197043983555E-01 -2.841023598529E-01 -4.492824292767E-01


#===END

data_OPT_STEP_73

_symmetry_space_group_name_H-M 'P 1'
_cell_length_a      8.26362211
_cell_length_b      6.20072981
_cell_length_c     15.84658116
_cell_angle_alpha   98.907569
_cell_angle_beta  107.502508
_cell_angle_gamma   87.782339

loop_
_atom_site_label
_atom_site_fract_x
_atom_site_fract_y
_atom_site_fract_z
C1  1.302509077190E-01  4.900656421086E-02  4.047627140071E-01
C2 -1.302509077190E-01 -4.900656421086E-02 -4.047627140071E-01
C3 -8.788368150050E-03 -2.505417656047E-01  2.916750136194E-01
C4  8.788368150050E-03  2.505417656047E-01 -2.916750136194E-01
C5  4.837403734851E-02 -1.601596238786E-01  3.792904755245E-01
C6 -4.837403734851E-02  1.601596238786E-01 -3.792904755245E-01
C7  1.526560986081E-01  1.612487713780E-01  3.418004434924E-01
C8 -1.526560986081E-01 -1.612487713780E-01 -3.418004434924E-01
C9  9.535340742342E-02  7.285145918556E-02  2.485853195108E-01
C10 -9.535340742342E-02 -7.285145918556E-02 -2.485853195108E-01
C11  1.173155261664E-01  1.830101420632E-01  1.831510604213E-01
C12 -1.173155261664E-01 -1.830101420632E-01 -1.831510604213E-01
C13  5.993327115317E-02  9.489798779143E-02  9.149325420925E-02
C14 -5.993327115317E-02 -9.489798779143E-02 -9.149325420925E-02
C15  8.147204269323E-02  2.051321920126E-01  2.498279965980E-02
C16 -8.147204269323E-02 -2.051321920126E-01 -2.498279965980E-02
C17 -2.396564050185E-02 -1.169480687573E-01  6.568983446914E-02
C18  2.396564050185E-02  1.169480687573E-01 -6.568983446914E-02
C19 -4.505884737381E-02 -2.274669906774E-01  1.331702185914E-01
C20  4.505884737381E-02  2.274669906774E-01 -1.331702185914E-01
C21  1.203400936814E-02 -1.391144691231E-01  2.228073400849E-01
C22 -1.203400936814E-02  1.391144691231E-01 -2.228073400849E-01
H23  1.745720622834E-01  1.177807879059E-01  4.750222436840E-01
H24 -1.745720622834E-01 -1.177807879059E-01 -4.750222436840E-01
H25 -7.117086388426E-02 -4.088465367147E-01  2.723975204223E-01
H26  7.117086388426E-02  4.088465367147E-01 -2.723975204223E-01
H27  3.161313272431E-02 -2.466395461660E-01  4.305613504634E-01
H28 -3.161313272431E-02  2.466395461660E-01 -4.305613504634E-01
H29  2.135556216255E-01  3.206364207673E-01  3.606185933234E-01
H30 -2.135556216255E-01 -3.206364207673E-01 -3.606185933234E-01
H31  1.798735854501E-01  3.413800165814E-01  2.023602855522E-01
H32 -1.798735854501E-01 -3.413800165814E-01 -2.023602855522E-01
H33  1.440711658374E-01  3.634430141483E-01  4.418001979390E-02
H34 -1.440711658374E-01 -3.634430141483E-01 -4.418001979390E-02
H35 -1.074635558436E-01 -3.858975454719E-01  1.139407591997E-01
H36  1.074635558436E-01  3.858975454719E-01 -1.139407591997E-01
C37 -4.409722557371E-01 -4.247126029198E-01  3.987092504843E-01
C38  4.409722557371E-01  4.247126029198E-01 -3.987092504843E-01
C39 -4.980225196214E-01 -3.178864357650E-01  3.266917306167E-01
C40  4.980225196214E-01  3.178864357650E-01 -3.266917306167E-01
C41 -4.818527205007E-01 -4.123888571951E-01  2.411912236611E-01
C42  4.818527205007E-01  4.123888571951E-01 -2.411912236611E-01
C43  4.617813679990E-01 -3.069991900174E-01  1.668811558570E-01
C44 -4.617813679990E-01  3.069991900174E-01 -1.668811558570E-01
C45  4.794485229040E-01 -4.002041897902E-01  8.305524932883E-02
C46 -4.794485229040E-01  4.002041897902E-01 -8.305524932883E-02
C47  4.236343634503E-01 -2.941594361198E-01  7.818652094385E-03
C48 -4.236343634503E-01  2.941594361198E-01 -7.818652094385E-03
C49 -4.420028544403E-01  3.871408726546E-01  7.496492213244E-02
C50  4.420028544403E-01 -3.871408726546E-01 -7.496492213244E-02
C51 -3.857798998378E-01  2.812591149069E-01  1.512594354544E-01
C52  3.857798998378E-01 -2.812591149069E-01 -1.512594354544E-01
C53 -4.036204163113E-01  3.749367035370E-01  2.331057551277E-01
C54  4.036204163113E-01 -3.749367035370E-01 -2.331057551277E-01
C55 -3.460300394317E-01  2.690982937049E-01  3.110304722304E-01
C56  3.460300394317E-01 -2.690982937049E-01 -3.110304722304E-01
C57 -3.640938387772E-01  3.655771972637E-01  3.907272462104E-01
C58  3.640938387772E-01 -3.655771972637E-01 -3.907272462104E-01
H59 -4.530495747382E-01 -3.505571956345E-01  4.630840542320E-01
H60  4.530495747382E-01  3.505571956345E-01 -4.630840542320E-01
H61  4.438768118329E-01 -1.587510177576E-01  3.328525715993E-01
H62 -4.438768118329E-01  1.587510177576E-01 -3.328525715993E-01
H63  4.033036451580E-01 -1.480023144861E-01  1.729883244666E-01
H64 -4.033036451580E-01  1.480023144861E-01 -1.729883244666E-01
H65  3.650839745716E-01 -1.352116574026E-01  1.391428279033E-02
H66 -3.650839745716E-01  1.352116574026E-01 -1.391428279033E-02
H67 -3.271969106198E-01  1.222877969674E-01  1.452450460512E-01
H68  3.271969106198E-01 -1.222877969674E-01 -1.452450460512E-01
H69 -2.872666901110E-01  1.103562564596E-01  3.050695447142E-01
H70  2.872666901110E-01 -1.103562564596E-01 -3.050695447142E-01
H71 -3.196678650358E-01  2.841553891235E-01  4.492319970760E-01
H72  3.196678650358E-01 -2.841553891235E-01 -4.492319970760E-01


#===END

data_OPT_STEP_74

_symmetry_space_group_name_H-M 'P 1'
_cell_length_a      8.25916200
_cell_length_b      6.20275245
_cell_length_c     15.84637327
_cell_angle_alpha   98.908911
_cell_angle_beta  107.473345
_cell_angle_gamma   87.785140

loop_
_atom_site_label
_atom_site_fract_x
_atom_site_fract_y
_atom_site_fract_z
C1  1.302729005724E-01  4.904596067551E-02  4.047325933922E-01
C2 -1.302729005724E-01 -4.904596067551E-02 -4.047325933922E-01
C3 -8.711238201398E-03 -2.504755632780E-01  2.916890319667E-01
C4  8.711238201398E-03  2.504755632780E-01 -2.916890319667E-01
C5  4.843514272612E-02 -1.600944478316E-01  3.792873142830E-01
C6 -4.843514272612E-02  1.600944478316E-01 -3.792873142830E-01
C7  1.526552555848E-01  1.612658961739E-01  3.417609745058E-01
C8 -1.526552555848E-01 -1.612658961739E-01 -3.417609745058E-01
C9  9.536372576570E-02  7.287074261597E-02  2.485623289112E-01
C10 -9.536372576570E-02 -7.287074261597E-02 -2.485623289112E-01
C11  1.172971427493E-01  1.830079992622E-01  1.831176013011E-01
C12 -1.172971427493E-01 -1.830079992622E-01 -1.831176013011E-01
C13  5.992372433091E-02  9.489661194383E-02  9.147622405357E-02
C14 -5.992372433091E-02 -9.489661194383E-02 -9.147622405357E-02
C15  8.143213005267E-02  2.051087503245E-01  2.495510306338E-02
C16 -8.143213005267E-02 -2.051087503245E-01 -2.495510306338E-02
C17 -2.393365162355E-02 -1.169254493437E-01  6.570103258923E-02
C18  2.393365162355E-02  1.169254493437E-01 -6.570103258923E-02
C19 -4.499731033127E-02 -2.274222462030E-01  1.331915164313E-01
C20  4.499731033127E-02  2.274222462030E-01 -1.331915164313E-01
C21  1.208551412124E-02 -1.390707356022E-01  2.228121075556E-01
C22 -1.208551412124E-02  1.390707356022E-01 -2.228121075556E-01
H23  1.745830211441E-01  1.178169908703E-01  4.749795993836E-01
H24 -1.745830211441E-01 -1.178169908703E-01 -4.749795993836E-01
H25 -7.106576511014E-02 -4.087602629901E-01  2.724319115397E-01
H26  7.106576511014E-02  4.087602629901E-01 -2.724319115397E-01
H27  3.168836926868E-02 -2.465558010760E-01  4.305645706026E-01
H28 -3.168836926868E-02  2.465558010760E-01 -4.305645706026E-01
H29  2.135311707495E-01  3.206290085288E-01  3.605599530314E-01
H30 -2.135311707495E-01 -3.206290085288E-01 -3.605599530314E-01
H31  1.798256849515E-01  3.413592649347E-01  2.023055053012E-01
H32 -1.798256849515E-01 -3.413592649347E-01 -2.023055053012E-01
H33  1.440016320986E-01  3.634012846033E-01  4.413077646062E-02
H34 -1.440016320986E-01 -3.634012846033E-01 -4.413077646062E-02
H35 -1.073738593627E-01 -3.858330786648E-01  1.139831575811E-01
H36  1.073738593627E-01  3.858330786648E-01 -1.139831575811E-01
C37 -4.409026467047E-01 -4.247023351903E-01  3.987063370551E-01
C38  4.409026467047E-01  4.247023351903E-01 -3.987063370551E-01
C39 -4.979470748804E-01 -3.178911704359E-01  3.267084898796E-01
C40  4.979470748804E-01  3.178911704359E-01 -3.267084898796E-01
C41 -4.818034974967E-01 -4.123841287495E-01  2.411969006608E-01
C42  4.818034974967E-01  4.123841287495E-01 -2.411969006608E-01
C43  4.618363946711E-01 -3.070113295469E-01  1.669058182142E-01
C44 -4.618363946711E-01  3.070113295469E-01 -1.669058182142E-01
C45  4.794764250635E-01 -4.002101708080E-01  8.306821593333E-02
C46 -4.794764250635E-01  4.002101708080E-01 -8.306821593333E-02
C47  4.236674940226E-01 -2.941847387690E-01  7.850053650869E-03
C48 -4.236674940226E-01  2.941847387690E-01 -7.850053650869E-03
C49 -4.420097834342E-01  3.871606136346E-01  7.494534462739E-02
C50  4.420097834342E-01 -3.871606136346E-01 -7.494534462739E-02
C51 -3.857918295848E-01  2.812968515193E-01  1.512211331303E-01
C52  3.857918295848E-01 -2.812968515193E-01 -1.512211331303E-01
C53 -4.036063190168E-01  3.749666131496E-01  2.330788050370E-01
C54  4.036063190168E-01 -3.749666131496E-01 -2.330788050370E-01
C55 -3.460187243542E-01  2.691454305249E-01  3.109844701045E-01
C56  3.460187243542E-01 -2.691454305249E-01 -3.109844701045E-01
C57 -3.640543908377E-01  3.656163736120E-01  3.906929249003E-01
C58  3.640543908377E-01 -3.656163736120E-01 -3.906929249003E-01
H59 -4.529673888999E-01 -3.505626989674E-01  4.630882616875E-01
H60  4.529673888999E-01  3.505626989674E-01 -4.630882616875E-01
H61  4.439730548674E-01 -1.587781244348E-01  3.328932667511E-01
H62 -4.439730548674E-01  1.587781244348E-01 -3.328932667511E-01
H63  4.033821623813E-01 -1.480349558011E-01  1.730368034076E-01
H64 -4.033821623813E-01  1.480349558011E-01 -1.730368034076E-01
H65  3.651416306740E-01 -1.352570592929E-01  1.396947059428E-02
H66 -3.651416306740E-01  1.352570592929E-01 -1.396947059428E-02
H67 -3.272318449809E-01  1.223467084072E-01  1.451830034483E-01
H68  3.272318449809E-01 -1.223467084072E-01 -1.451830034483E-01
H69 -2.872789187166E-01  1.104235234254E-01  3.050001414004E-01
H70  2.872789187166E-01 -1.104235234254E-01 -3.050001414004E-01
H71 -3.196310170471E-01  2.842080204215E-01  4.491828095936E-01
H72  3.196310170471E-01 -2.842080204215E-01 -4.491828095936E-01


#===END

data_OPT_STEP_75

_symmetry_space_group_name_H-M 'P 1'
_cell_length_a      8.25474010
_cell_length_b      6.20476048
_cell_length_c     15.84612347
_cell_angle_alpha   98.909615
_cell_angle_beta  107.443748
_cell_angle_gamma   87.788063

loop_
_atom_site_label
_atom_site_fract_x
_atom_site_fract_y
_atom_site_fract_z
C1  1.302981584150E-01  4.909153851956E-02  4.047034887748E-01
C2 -1.302981584150E-01 -4.909153851956E-02 -4.047034887748E-01
C3 -8.635711285243E-03 -2.504044955881E-01  2.917052026724E-01
C4  8.635711285243E-03  2.504044955881E-01 -2.917052026724E-01
C5  4.849750356297E-02 -1.600216371046E-01  3.792867145148E-01
C6 -4.849750356297E-02  1.600216371046E-01 -3.792867145148E-01
C7  1.526580657093E-01  1.612858584730E-01  3.417212462781E-01
C8 -1.526580657093E-01 -1.612858584730E-01 -3.417212462781E-01
C9  9.537728565193E-02  7.288963201179E-02  2.485391337219E-01
C10 -9.537728565193E-02 -7.288963201179E-02 -2.485391337219E-01
C11  1.172827488856E-01  1.830038356190E-01  1.830831669578E-01
C12 -1.172827488856E-01 -1.830038356190E-01 -1.830831669578E-01
C13  5.991640586208E-02  9.489415771784E-02  9.145856356650E-02
C14 -5.991640586208E-02 -9.489415771784E-02 -9.145856356650E-02
C15  8.139449364083E-02  2.050848218113E-01  2.492645195147E-02
C16 -8.139449364083E-02 -2.050848218113E-01 -2.492645195147E-02
C17 -2.390225484354E-02 -1.169031642478E-01  6.571278418953E-02
C18  2.390225484354E-02  1.169031642478E-01 -6.571278418953E-02
C19 -4.493727575947E-02 -2.273766251743E-01  1.332141221507E-01
C20  4.493727575947E-02  2.273766251743E-01 -1.332141221507E-01
C21  1.213754192577E-02 -1.390261760658E-01  2.228179688942E-01
C22 -1.213754192577E-02  1.390261760658E-01 -2.228179688942E-01
H23  1.745958000089E-01  1.178626881563E-01  4.749375377445E-01
H24 -1.745958000089E-01 -1.178626881563E-01 -4.749375377445E-01
H25 -7.096388904546E-02 -4.086682675585E-01  2.724696658862E-01
H26  7.096388904546E-02  4.086682675585E-01 -2.724696658862E-01
H27  3.176289204332E-02 -2.464581043753E-01  4.305721598466E-01
H28 -3.176289204332E-02  2.464581043753E-01 -4.305721598466E-01
H29  2.135073106577E-01  3.206273510750E-01  3.604996906203E-01
H30 -2.135073106577E-01 -3.206273510750E-01 -3.604996906203E-01
H31  1.797825891019E-01  3.413357418850E-01  2.022490082090E-01
H32 -1.797825891019E-01 -3.413357418850E-01 -2.022490082090E-01
H33  1.439365589829E-01  3.633571966995E-01  4.407993730275E-02
H34 -1.439365589829E-01 -3.633571966995E-01 -4.407993730275E-02
H35 -1.072870454435E-01 -3.857668767307E-01  1.140278227498E-01
H36  1.072870454435E-01  3.857668767307E-01 -1.140278227498E-01
C37 -4.408337074599E-01 -4.247010069344E-01  3.987020123033E-01
C38  4.408337074599E-01  4.247010069344E-01 -3.987020123033E-01
C39 -4.978715585357E-01 -3.179046290105E-01  3.267238665572E-01
C40  4.978715585357E-01  3.179046290105E-01 -3.267238665572E-01
C41 -4.817538609126E-01 -4.123865283065E-01  2.412015426387E-01
C42  4.817538609126E-01  4.123865283065E-01 -2.412015426387E-01
C43  4.618895773847E-01 -3.070301207414E-01  1.669292427950E-01
C44 -4.618895773847E-01  3.070301207414E-01 -1.669292427950E-01
C45  4.795030448725E-01 -4.002197728567E-01  8.308037169484E-02
C46 -4.795030448725E-01  4.002197728567E-01 -8.308037169484E-02
C47  4.236969485031E-01 -2.942115367827E-01  7.880822092896E-03
C48 -4.236969485031E-01  2.942115367827E-01 -7.880822092896E-03
C49 -4.420138649010E-01  3.871781109450E-01  7.492577259829E-02
C50  4.420138649010E-01 -3.871781109450E-01 -7.492577259829E-02
C51 -3.857998697540E-01  2.813310939284E-01  1.511825899688E-01
C52  3.857998697540E-01 -2.813310939284E-01 -1.511825899688E-01
C53 -4.035896117604E-01  3.749908939988E-01  2.330513836678E-01
C54  4.035896117604E-01 -3.749908939988E-01 -2.330513836678E-01
C55 -3.460069102745E-01  2.691846020125E-01  3.109372611070E-01
C56  3.460069102745E-01 -2.691846020125E-01 -3.109372611070E-01
C57 -3.640159282857E-01  3.656454634668E-01  3.906571409553E-01
C58  3.640159282857E-01 -3.656454634668E-01 -3.906571409553E-01
H59 -4.528828109091E-01 -3.505740541280E-01  4.630921055820E-01
H60  4.528828109091E-01  3.505740541280E-01 -4.630921055820E-01
H61  4.440692111403E-01 -1.588147147708E-01  3.329320802611E-01
H62 -4.440692111403E-01  1.588147147708E-01 -3.329320802611E-01
H63  4.034575425255E-01 -1.480756152275E-01  1.730841007705E-01
H64 -4.034575425255E-01  1.480756152275E-01 -1.730841007705E-01
H65  3.651918936148E-01 -1.353062417373E-01  1.402365394805E-02
H66 -3.651918936148E-01  1.353062417373E-01 -1.402365394805E-02
H67 -3.272627233178E-01  1.224020118494E-01  1.451209194612E-01
H68  3.272627233178E-01 -1.224020118494E-01 -1.451209194612E-01
H69 -2.872898200465E-01  1.104838915011E-01  3.049298003608E-01
H70  2.872898200465E-01 -1.104838915011E-01 -3.049298003608E-01
H71 -3.195944455448E-01  2.842491917003E-01  4.491320928872E-01
H72  3.195944455448E-01 -2.842491917003E-01 -4.491320928872E-01


#===END

data_OPT_STEP_76

_symmetry_space_group_name_H-M 'P 1'
_cell_length_a      8.25034434
_cell_length_b      6.20674122
_cell_length_c     15.84584054
_cell_angle_alpha   98.910134
_cell_angle_beta  107.413590
_cell_angle_gamma   87.790999

loop_
_atom_site_label
_atom_site_fract_x
_atom_site_fract_y
_atom_site_fract_z
C1  1.303234785061E-01  4.912705156065E-02  4.046739279475E-01
C2 -1.303234785061E-01 -4.912705156065E-02 -4.046739279475E-01
C3 -8.557261155952E-03 -2.503401655676E-01  2.917220660707E-01
C4  8.557261155952E-03  2.503401655676E-01 -2.917220660707E-01
C5  4.856039424411E-02 -1.599592053692E-01  3.792857733137E-01
C6 -4.856039424411E-02  1.599592053692E-01 -3.792857733137E-01
C7  1.526607863053E-01  1.612991188594E-01  3.416812659407E-01
C8 -1.526607863053E-01 -1.612991188594E-01 -3.416812659407E-01
C9  9.538995312259E-02  7.290647329908E-02  2.485162670248E-01
C10 -9.538995312259E-02 -7.290647329908E-02 -2.485162670248E-01
C11  1.172661404291E-01  1.829998138562E-01  1.830486900634E-01
C12 -1.172661404291E-01 -1.829998138562E-01 -1.830486900634E-01
C13  5.990753185678E-02  9.489200806192E-02  9.144099771308E-02
C14 -5.990753185678E-02 -9.489200806192E-02 -9.144099771308E-02
C15  8.135449082029E-02  2.050610681690E-01  2.489690689212E-02
C16 -8.135449082029E-02 -2.050610681690E-01 -2.489690689212E-02
C17 -2.386966841011E-02 -1.168808948930E-01  6.572529801203E-02
C18  2.386966841011E-02  1.168808948930E-01 -6.572529801203E-02
C19 -4.487458233896E-02 -2.273326993370E-01  1.332379136180E-01
C20  4.487458233896E-02  2.273326993370E-01 -1.332379136180E-01
C21  1.219071664970E-02 -1.389841409702E-01  2.228245953603E-01
C22 -1.219071664970E-02  1.389841409702E-01 -2.228245953603E-01
H23  1.746101895296E-01  1.178946031723E-01  4.748950064071E-01
H24 -1.746101895296E-01 -1.178946031723E-01 -4.748950064071E-01
H25 -7.085851173398E-02 -4.085831228198E-01  2.725082022662E-01
H26  7.085851173398E-02  4.085831228198E-01 -2.725082022662E-01
H27  3.183988877792E-02 -2.463777250155E-01  4.305783912844E-01
H28 -3.183988877792E-02  2.463777250155E-01 -4.305783912844E-01
H29  2.134873620245E-01  3.206154237419E-01  3.604390392470E-01
H30 -2.134873620245E-01 -3.206154237419E-01 -3.604390392470E-01
H31  1.797371978099E-01  3.413125834545E-01  2.021919569508E-01
H32 -1.797371978099E-01 -3.413125834545E-01 -2.021919569508E-01
H33  1.438667500935E-01  3.633150634242E-01  4.402744158998E-02
H34 -1.438667500935E-01 -3.633150634242E-01 -4.402744158998E-02
H35 -1.071962334332E-01 -3.857031018117E-01  1.140739683531E-01
H36  1.071962334332E-01  3.857031018117E-01 -1.140739683531E-01
C37 -4.407595544947E-01 -4.246986058194E-01  3.987002208308E-01
C38  4.407595544947E-01  4.246986058194E-01 -3.987002208308E-01
C39 -4.977926592082E-01 -3.179153321283E-01  3.267416191955E-01
C40  4.977926592082E-01  3.179153321283E-01 -3.267416191955E-01
C41 -4.817021835504E-01 -4.123864708959E-01  2.412078966422E-01
C42  4.817021835504E-01  4.123864708959E-01 -2.412078966422E-01
C43  4.619460307905E-01 -3.070451786858E-01  1.669544364722E-01
C44 -4.619460307905E-01  3.070451786858E-01 -1.669544364722E-01
C45  4.795317245848E-01 -4.002273145016E-01  8.309361292787E-02
C46 -4.795317245848E-01  4.002273145016E-01 -8.309361292787E-02
C47  4.237297183366E-01 -2.942367596091E-01  7.912321901790E-03
C48 -4.237297183366E-01  2.942367596091E-01 -7.912321901790E-03
C49 -4.420193913752E-01  3.871963417555E-01  7.490639635599E-02
C50  4.420193913752E-01 -3.871963417555E-01 -7.490639635599E-02
C51 -3.858096666365E-01  2.813654472677E-01  1.511444985804E-01
C52  3.858096666365E-01 -2.813654472677E-01 -1.511444985804E-01
C53 -4.035726139059E-01  3.750158583236E-01  2.330249432160E-01
C54  4.035726139059E-01 -3.750158583236E-01 -2.330249432160E-01
C55 -3.459920039515E-01  2.692242036399E-01  3.108917644494E-01
C56  3.459920039515E-01 -2.692242036399E-01 -3.108917644494E-01
C57 -3.639722621468E-01  3.656752607562E-01  3.906236037145E-01
C58  3.639722621468E-01 -3.656752607562E-01 -3.906236037145E-01
H59 -4.527943644398E-01 -3.505876996904E-01  4.630978252610E-01
H60  4.527943644398E-01  3.505876996904E-01 -4.630978252610E-01
H61  4.441686578868E-01 -1.588473613810E-01  3.329738266371E-01
H62 -4.441686578868E-01  1.588473613810E-01 -3.329738266371E-01
H63  4.035368799816E-01 -1.481109926316E-01  1.731331790754E-01
H64 -4.035368799816E-01  1.481109926316E-01 -1.731331790754E-01
H65  3.652482694253E-01 -1.353518148614E-01  1.407893580512E-02
H66 -3.652482694253E-01  1.353518148614E-01 -1.407893580512E-02
H67 -3.272957121116E-01  1.224572284518E-01  1.450588860384E-01
H68  3.272957121116E-01 -1.224572284518E-01 -1.450588860384E-01
H69 -2.872985677609E-01  1.105432679521E-01  3.048606027943E-01
H70  2.872985677609E-01 -1.105432679521E-01 -3.048606027943E-01
H71 -3.195534991331E-01  2.842900734293E-01  4.490837197861E-01
H72  3.195534991331E-01 -2.842900734293E-01 -4.490837197861E-01


#===END

data_OPT_STEP_77

_symmetry_space_group_name_H-M 'P 1'
_cell_length_a      8.24598591
_cell_length_b      6.20869815
_cell_length_c     15.84552133
_cell_angle_alpha   98.910019
_cell_angle_beta  107.382990
_cell_angle_gamma   87.794028

loop_
_atom_site_label
_atom_site_fract_x
_atom_site_fract_y
_atom_site_fract_z
C1  1.303518535014E-01  4.916852823147E-02  4.046453466823E-01
C2 -1.303518535014E-01 -4.916852823147E-02 -4.046453466823E-01
C3 -8.479264190070E-03 -2.502722296255E-01  2.917411524866E-01
C4  8.479264190071E-03  2.502722296255E-01 -2.917411524866E-01
C5  4.862540328797E-02 -1.598900613834E-01  3.792874415010E-01
C6 -4.862540328797E-02  1.598900613834E-01 -3.792874415010E-01
C7  1.526670827935E-01  1.613149100550E-01  3.416409214867E-01
C8 -1.526670827935E-01 -1.613149100550E-01 -3.416409214867E-01
C9  9.540618064225E-02  7.292201562512E-02  2.484929891955E-01
C10 -9.540618064225E-02 -7.292201562512E-02 -2.484929891955E-01
C11  1.172538151149E-01  1.829930087425E-01  1.830130498026E-01
C12 -1.172538151149E-01 -1.829930087425E-01 -1.830130498026E-01
C13  5.990129987918E-02  9.488810676997E-02  9.142270556624E-02
C14 -5.990129987918E-02 -9.488810676997E-02 -9.142270556624E-02
C15  8.131712645800E-02  2.050367479000E-01  2.486664860565E-02
C16 -8.131712645800E-02 -2.050367479000E-01 -2.486664860565E-02
C17 -2.383749483234E-02 -1.168596152441E-01  6.573811283889E-02
C18  2.383749483234E-02  1.168596152441E-01 -6.573811283889E-02
C19 -4.481317018416E-02 -2.272889233295E-01  1.332626875294E-01
C20  4.481317018416E-02  2.272889233295E-01 -1.332626875294E-01
C21  1.224483360592E-02 -1.389423846556E-01  2.228321111473E-01
C22 -1.224483360592E-02  1.389423846556E-01 -2.228321111473E-01
H23  1.746267484330E-01  1.179354990051E-01  4.748530522480E-01
H24 -1.746267484330E-01 -1.179354990051E-01 -4.748530522480E-01
H25 -7.075450226908E-02 -4.084938760745E-01  2.725503371783E-01
H26  7.075450226908E-02  4.084938760745E-01 -2.725503371783E-01
H27  3.191669445193E-02 -2.462836709172E-01  4.305890581493E-01
H28 -3.191669445193E-02  2.462836709172E-01 -4.305890581493E-01
H29  2.134678469788E-01  3.206090186976E-01  3.603768806981E-01
H30 -2.134678469788E-01 -3.206090186976E-01 -3.603768806981E-01
H31  1.796958658690E-01  3.412865256865E-01  2.021328671717E-01
H32 -1.796958658690E-01 -3.412865256865E-01 -2.021328671717E-01
H33  1.438023929619E-01  3.632701944623E-01  4.397377435130E-02
H34 -1.438023929619E-01 -3.632701944623E-01 -4.397377435130E-02
H35 -1.071086803455E-01 -3.856381576632E-01  1.141220696149E-01
H36  1.071086803455E-01  3.856381576632E-01 -1.141220696149E-01
C37 -4.406858221614E-01 -4.247027862642E-01  3.986972124979E-01
C38  4.406858221614E-01  4.247027862642E-01 -3.986972124979E-01
C39 -4.977129785425E-01 -3.179325575751E-01  3.267582727213E-01
C40  4.977129785425E-01  3.179325575751E-01 -3.267582727213E-01
C41 -4.816496310960E-01 -4.123918713941E-01  2.412134213347E-01
C42  4.816496310960E-01  4.123918713941E-01 -2.412134213347E-01
C43  4.620011460614E-01 -3.070652421428E-01  1.669786049303E-01
C44 -4.620011460614E-01  3.070652421428E-01 -1.669786049303E-01
C45  4.795592050141E-01 -4.002374304175E-01  8.310616284003E-02
C46 -4.795592050141E-01  4.002374304175E-01 -8.310616284003E-02
C47  4.237592215006E-01 -2.942624191661E-01  7.943333136157E-03
C48 -4.237592215006E-01  2.942624191661E-01 -7.943333136157E-03
C49 -4.420228248246E-01  3.872122070375E-01  7.488692625415E-02
C50  4.420228248246E-01 -3.872122070375E-01 -7.488692625415E-02
C51 -3.858159885315E-01  2.813962999168E-01  1.511063242013E-01
C52  3.858159885315E-01 -2.813962999168E-01 -1.511063242013E-01
C53 -4.035534027805E-01  3.750360829500E-01  2.329981417079E-01
C54  4.035534027805E-01 -3.750360829500E-01 -2.329981417079E-01
C55 -3.459772850040E-01  2.692574812502E-01  3.108453697925E-01
C56  3.459772850040E-01 -2.692574812502E-01 -3.108453697925E-01
C57 -3.639300251646E-01  3.656980134386E-01  3.905888950967E-01
C58  3.639300251646E-01 -3.656980134386E-01 -3.905888950967E-01
H59 -4.527044535699E-01 -3.506055001142E-01  4.631031107033E-01
H60  4.527044535699E-01  3.506055001142E-01 -4.631031107033E-01
H61  4.442694606149E-01 -1.588867223597E-01  3.330141928662E-01
H62 -4.442694606149E-01  1.588867223597E-01 -3.330141928662E-01
H63  4.036142037456E-01 -1.481521992144E-01  1.731813042641E-01
H64 -4.036142037456E-01  1.481521992144E-01 -1.731813042641E-01
H65  3.652990401465E-01 -1.353987862741E-01  1.413349433195E-02
H66 -3.652990401465E-01  1.353987862741E-01 -1.413349433195E-02
H67 -3.273245051395E-01  1.225084392952E-01  1.449971601716E-01
H68  3.273245051395E-01 -1.225084392952E-01 -1.449971601716E-01
H69 -2.873070620357E-01  1.105965012683E-01  3.047909185241E-01
H70  2.873070620357E-01 -1.105965012683E-01 -3.047909185241E-01
H71 -3.195138762616E-01  2.843234449136E-01  4.490340698822E-01
H72  3.195138762616E-01 -2.843234449136E-01 -4.490340698822E-01


#===END

data_OPT_STEP_78

_symmetry_space_group_name_H-M 'P 1'
_cell_length_a      8.24166346
_cell_length_b      6.21062817
_cell_length_c     15.84516434
_cell_angle_alpha   98.909645
_cell_angle_beta  107.351807
_cell_angle_gamma   87.797177

loop_
_atom_site_label
_atom_site_fract_x
_atom_site_fract_y
_atom_site_fract_z
C1  1.303803170301E-01  4.920167965411E-02  4.046163776979E-01
C2 -1.303803170301E-01 -4.920167965411E-02 -4.046163776979E-01
C3 -8.398763868834E-03 -2.502096487831E-01  2.917610650715E-01
C4  8.398763868834E-03  2.502096487831E-01 -2.917610650715E-01
C5  4.869070775509E-02 -1.598295398643E-01  3.792889154455E-01
C6 -4.869070775509E-02  1.598295398643E-01 -3.792889154455E-01
C7  1.526732020627E-01  1.613258671042E-01  3.416004071112E-01
C8 -1.526732020627E-01 -1.613258671042E-01 -3.416004071112E-01
C9  9.542183770284E-02  7.293684788606E-02  2.484701718399E-01
C10 -9.542183770284E-02 -7.293684788606E-02 -2.484701718399E-01
C11  1.172397935885E-01  1.829874983688E-01  1.829774431015E-01
C12 -1.172397935885E-01 -1.829874983688E-01 -1.829774431015E-01
C13  5.989385161136E-02  9.488517001114E-02  9.140454089417E-02
C14 -5.989385161136E-02 -9.488517001114E-02 -9.140454089417E-02
C15  8.127747425303E-02  2.050129676384E-01  2.483515833984E-02
C16 -8.127747425303E-02 -2.050129676384E-01 -2.483515833984E-02
C17 -2.380402667769E-02 -1.168380513857E-01  6.575198254429E-02
C18  2.380402667769E-02  1.168380513857E-01 -6.575198254429E-02
C19 -4.474899111875E-02 -2.272461503511E-01  1.332890576889E-01
C20  4.474899111875E-02  2.272461503511E-01 -1.332890576889E-01
C21  1.230034490315E-02 -1.389021107794E-01  2.228406700229E-01
C22 -1.230034490315E-02  1.389021107794E-01 -2.228406700229E-01
H23  1.746437216633E-01  1.179651637522E-01  4.748105581640E-01
H24 -1.746437216633E-01 -1.179651637522E-01 -4.748105581640E-01
H25 -7.064749313142E-02 -4.084102945084E-01  2.725933796886E-01
H26  7.064749313142E-02  4.084102945084E-01 -2.725933796886E-01
H27  3.199611547988E-02 -2.462048644502E-01  4.305987670801E-01
H28 -3.199611547988E-02  2.462048644502E-01 -4.305987670801E-01
H29  2.134513012830E-01  3.205950393307E-01  3.603143141273E-01
H30 -2.134513012830E-01 -3.205950393307E-01 -3.603143141273E-01
H31  1.796534787238E-01  3.412615913255E-01  2.020732420398E-01
H32 -1.796534787238E-01 -3.412615913255E-01 -2.020732420398E-01
H33  1.437330583456E-01  3.632280071955E-01  4.391784471183E-02
H34 -1.437330583456E-01 -3.632280071955E-01 -4.391784471183E-02
H35 -1.070166829648E-01 -3.855754302291E-01  1.141722535774E-01
H36  1.070166829648E-01  3.855754302291E-01 -1.141722535774E-01
C37 -4.406079109720E-01 -4.247062601509E-01  3.986962839035E-01
C38  4.406079109720E-01  4.247062601509E-01 -3.986962839035E-01
C39 -4.976312534592E-01 -3.179478300161E-01  3.267766225566E-01
C40  4.976312534592E-01  3.179478300161E-01 -3.267766225566E-01
C41 -4.815958558291E-01 -4.123956126826E-01  2.412202491649E-01
C42  4.815958558291E-01  4.123956126826E-01 -2.412202491649E-01
C43  4.620586230211E-01 -3.070828457794E-01  1.670040172586E-01
C44 -4.620586230211E-01  3.070828457794E-01 -1.670040172586E-01
C45  4.795882900293E-01 -4.002464074006E-01  8.311946247661E-02
C46 -4.795882900293E-01  4.002464074006E-01 -8.311946247661E-02
C47  4.237911013854E-01 -2.942876473296E-01  7.974624728658E-03
C48 -4.237911013854E-01  2.942876473296E-01 -7.974624728658E-03
C49 -4.420269078346E-01  3.872289435264E-01  7.486785299928E-02
C50  4.420269078346E-01 -3.872289435264E-01 -7.486785299928E-02
C51 -3.858234971839E-01  2.814275675425E-01  1.510686980594E-01
C52  3.858234971839E-01 -2.814275675425E-01 -1.510686980594E-01
C53 -4.035336338276E-01  3.750568175966E-01  2.329723363522E-01
C54  4.035336338276E-01 -3.750568175966E-01 -2.329723363522E-01
C55 -3.459592031102E-01  2.692910299457E-01  3.108006063074E-01
C56  3.459592031102E-01 -2.692910299457E-01 -3.108006063074E-01
C57 -3.638825069869E-01  3.657207535475E-01  3.905562545813E-01
C58  3.638825069869E-01 -3.657207535475E-01 -3.905562545813E-01
H59 -4.526113765522E-01 -3.506249496102E-01  4.631098996757E-01
H60  4.526113765522E-01  3.506249496102E-01 -4.631098996757E-01
H61  4.443713513684E-01 -1.589236591863E-01  3.330563823853E-01
H62 -4.443713513684E-01  1.589236591863E-01 -3.330563823853E-01
H63  4.036942007884E-01 -1.481898843260E-01  1.732305394492E-01
H64 -4.036942007884E-01  1.481898843260E-01 -1.732305394492E-01
H65  3.653536391727E-01 -1.354444899263E-01  1.418840879507E-02
H66 -3.653536391727E-01  1.354444899263E-01 -1.418840879507E-02
H67 -3.273552844393E-01  1.225601884909E-01  1.449355372309E-01
H68  3.273552844393E-01 -1.225601884909E-01 -1.449355372309E-01
H69 -2.873124270219E-01  1.106495942997E-01  3.047225204219E-01
H70  2.873124270219E-01 -1.106495942997E-01 -3.047225204219E-01
H71 -3.194685273411E-01  2.843558490960E-01  4.489867478540E-01
H72  3.194685273411E-01 -2.843558490960E-01 -4.489867478540E-01


#===END

data_OPT_STEP_79

_symmetry_space_group_name_H-M 'P 1'
_cell_length_a      8.23738122
_cell_length_b      6.21252682
_cell_length_c     15.84477274
_cell_angle_alpha   98.908678
_cell_angle_beta  107.320144
_cell_angle_gamma   87.800432

loop_
_atom_site_label
_atom_site_fract_x
_atom_site_fract_y
_atom_site_fract_z
C1  1.304118460409E-01  4.923979509464E-02  4.045883840945E-01
C2 -1.304118460409E-01 -4.923979509464E-02 -4.045883840945E-01
C3 -8.318321209147E-03 -2.501444317226E-01  2.917832852878E-01
C4  8.318321209147E-03  2.501444317226E-01 -2.917832852878E-01
C5  4.875853233081E-02 -1.597638302481E-01  3.792930422780E-01
C6 -4.875853233081E-02  1.597638302481E-01 -3.792930422780E-01
C7  1.526825151131E-01  1.613390404213E-01  3.415594982119E-01
C8 -1.526825151131E-01 -1.613390404213E-01 -3.415594982119E-01
C9  9.544017513638E-02  7.295069479831E-02  2.484468733748E-01
C10 -9.544017513638E-02 -7.295069479831E-02 -2.484468733748E-01
C11  1.172288928340E-01  1.829796659629E-01  1.829405130309E-01
C12 -1.172288928340E-01 -1.829796659629E-01 -1.829405130309E-01
C13  5.988830021158E-02  9.488078577057E-02  9.138556894409E-02
C14 -5.988830021158E-02 -9.488078577057E-02 -9.138556894409E-02
C15  8.124008897013E-02  2.049887156768E-01  2.480299076102E-02
C16 -8.124008897013E-02 -2.049887156768E-01 -2.480299076102E-02
C17 -2.377112352803E-02 -1.168173565473E-01  6.576608163432E-02
C18  2.377112352803E-02  1.168173565473E-01 -6.576608163432E-02
C19 -4.468610844810E-02 -2.272036855968E-01  1.333163590399E-01
C20  4.468610844810E-02  2.272036855968E-01 -1.333163590399E-01
C21  1.235637619891E-02 -1.388621515030E-01  2.228500833500E-01
C22 -1.235637619891E-02  1.388621515030E-01 -2.228500833500E-01
H23  1.746643651705E-01  1.180019949497E-01  4.747688092026E-01
H24 -1.746643651705E-01 -1.180019949497E-01 -4.747688092026E-01
H25 -7.054122150143E-02 -4.083238377179E-01  2.726400625302E-01
H26  7.054122150143E-02  4.083238377179E-01 -2.726400625302E-01
H27  3.207608898557E-02 -2.461151478729E-01  4.306127436952E-01
H28 -3.207608898557E-02  2.461151478729E-01 -4.306127436952E-01
H29  2.134358104990E-01  3.205853468226E-01  3.602503004712E-01
H30 -2.134358104990E-01 -3.205853468226E-01 -3.602503004712E-01
H31  1.796135735016E-01  3.412347250849E-01  2.020113441956E-01
H32 -1.796135735016E-01 -3.412347250849E-01 -2.020113441956E-01
H33  1.436687093727E-01  3.631833770757E-01  4.386080073766E-02
H34 -1.436687093727E-01 -3.631833770757E-01 -4.386080073766E-02
H35 -1.069278132879E-01 -3.855118945793E-01  1.142243331673E-01
H36  1.069278132879E-01  3.855118945793E-01 -1.142243331673E-01
C37 -4.405301323256E-01 -4.247143363804E-01  3.986946086908E-01
C38  4.405301323256E-01  4.247143363804E-01 -3.986946086908E-01
C39 -4.975483304501E-01 -3.179679458141E-01  3.267943348124E-01
C40  4.975483304501E-01  3.179679458141E-01 -3.267943348124E-01
C41 -4.815407827371E-01 -4.124033771421E-01  2.412266032274E-01
C42  4.815407827371E-01  4.124033771421E-01 -2.412266032274E-01
C43  4.621154520488E-01 -3.071038487020E-01  1.670288396288E-01
C44 -4.621154520488E-01  3.071038487020E-01 -1.670288396288E-01
C45  4.796167395486E-01 -4.002568371911E-01  8.313236664551E-02
C46 -4.796167395486E-01  4.002568371911E-01 -8.313236664551E-02
C47  4.238207107829E-01 -2.943122091095E-01  8.005720094553E-03
C48 -4.238207107829E-01  2.943122091095E-01 -8.005720094553E-03
C49 -4.420295139005E-01  3.872434383768E-01  7.484868689149E-02
C50  4.420295139005E-01 -3.872434383768E-01 -7.484868689149E-02
C51 -3.858279138733E-01  2.814558291258E-01  1.510312091415E-01
C52  3.858279138733E-01 -2.814558291258E-01 -1.510312091415E-01
C53 -4.035117204541E-01  3.750739332982E-01  2.329464479107E-01
C54  4.035117204541E-01 -3.750739332982E-01 -2.329464479107E-01
C55 -3.459406424493E-01  2.693202062768E-01  3.107556051090E-01
C56  3.459406424493E-01 -2.693202062768E-01 -3.107556051090E-01
C57 -3.638360130754E-01  3.657391491547E-01  3.905230725613E-01
C58  3.638360130754E-01 -3.657391491547E-01 -3.905230725613E-01
H59 -4.525177047994E-01 -3.506473964205E-01  4.631164202828E-01
H60  4.525177047994E-01  3.506473964205E-01 -4.631164202828E-01
H61  4.444751698454E-01 -1.589652530826E-01  3.330977375086E-01
H62 -4.444751698454E-01  1.589652530826E-01 -3.330977375086E-01
H63  4.037729873322E-01 -1.482314202491E-01  1.732792910756E-01
H64 -4.037729873322E-01  1.482314202491E-01 -1.732792910756E-01
H65  3.654047961287E-01 -1.354894025958E-01  1.424315716368E-02
H66 -3.654047961287E-01  1.354894025958E-01 -1.424315716368E-02
H67 -3.273816465120E-01  1.226083074870E-01  1.448745855226E-01
H68  3.273816465120E-01 -1.226083074870E-01 -1.448745855226E-01
H69 -2.873169647391E-01  1.106979977934E-01  3.046543564531E-01
H70  2.873169647391E-01 -1.106979977934E-01 -3.046543564531E-01
H71 -3.194245672347E-01  2.843839678169E-01  4.489388246726E-01
H72  3.194245672347E-01 -2.843839678169E-01 -4.489388246726E-01


#===END

data_OPT_STEP_80

_symmetry_space_group_name_H-M 'P 1'
_cell_length_a      8.23314173
_cell_length_b      6.21439591
_cell_length_c     15.84434161
_cell_angle_alpha   98.907347
_cell_angle_beta  107.287893
_cell_angle_gamma   87.803858

loop_
_atom_site_label
_atom_site_fract_x
_atom_site_fract_y
_atom_site_fract_z
C1  1.304433636873E-01  4.927272920666E-02  4.045600471061E-01
C2 -1.304433636873E-01 -4.927272920666E-02 -4.045600471061E-01
C3 -8.236100586658E-03 -2.500824763499E-01  2.918066081397E-01
C4  8.236100586659E-03  2.500824763499E-01 -2.918066081397E-01
C5  4.882595949819E-02 -1.597034591751E-01  3.792973048640E-01
C6 -4.882595949819E-02  1.597034591751E-01 -3.792973048640E-01
C7  1.526925522083E-01  1.613492036777E-01  3.415183414019E-01
C8 -1.526925522083E-01 -1.613492036777E-01 -3.415183414019E-01
C9  9.545926771724E-02  7.296422420282E-02  2.484240280519E-01
C10 -9.545926771724E-02 -7.296422420282E-02 -2.484240280519E-01
C11  1.172181132565E-01  1.829727885203E-01  1.829035308692E-01
C12 -1.172181132565E-01 -1.829727885203E-01 -1.829035308692E-01
C13  5.988257904968E-02  9.487713722454E-02  9.136664520388E-02
C14 -5.988257904968E-02 -9.487713722454E-02 -9.136664520388E-02
C15  8.120144028838E-02  2.049650129360E-01  2.476951009737E-02
C16 -8.120144028838E-02 -2.049650129360E-01 -2.476951009737E-02
C17 -2.373695533971E-02 -1.167965944192E-01  6.578130948976E-02
C18  2.373695533971E-02  1.167965944192E-01 -6.578130948976E-02
C19 -4.462088445962E-02 -2.271619155440E-01  1.333454120830E-01
C20  4.462088445962E-02  2.271619155440E-01 -1.333454120830E-01
C21  1.241414427842E-02 -1.388231058645E-01  2.228607882960E-01
C22 -1.241414427842E-02  1.388231058645E-01 -2.228607882960E-01
H23  1.746839832999E-01  1.180320626936E-01  4.747263370750E-01
H24 -1.746839832999E-01 -1.180320626936E-01 -4.747263370750E-01
H25 -7.043292687891E-02 -4.082408354780E-01  2.726881301915E-01
H26  7.043292687891E-02  4.082408354780E-01 -2.726881301915E-01
H27  3.215742580410E-02 -2.460354831097E-01  4.306265090155E-01
H28 -3.215742580410E-02  2.460354831097E-01 -4.306265090155E-01
H29  2.134232273515E-01  3.205710803939E-01  3.601855358894E-01
H30 -2.134232273515E-01 -3.205710803939E-01 -3.601855358894E-01
H31  1.795749000854E-01  3.412083390737E-01  2.019488127192E-01
H32 -1.795749000854E-01 -3.412083390737E-01 -2.019488127192E-01
H33  1.436010175724E-01  3.631411084338E-01  4.380134452552E-02
H34 -1.436010175724E-01 -3.631411084338E-01 -4.380134452552E-02
H35 -1.068354732549E-01 -3.854500185214E-01  1.142788466273E-01
H36  1.068354732549E-01  3.854500185214E-01 -1.142788466273E-01
C37 -4.404501877220E-01 -4.247223202688E-01  3.986942277846E-01
C38  4.404501877220E-01  4.247223202688E-01 -3.986942277846E-01
C39 -4.974649837682E-01 -3.179870635377E-01  3.268128191737E-01
C40  4.974649837682E-01  3.179870635377E-01 -3.268128191737E-01
C41 -4.814850237051E-01 -4.124101844928E-01  2.412337274101E-01
C42  4.814850237051E-01  4.124101844928E-01 -2.412337274101E-01
C43  4.621735933180E-01 -3.071237623468E-01  1.670541395759E-01
C44 -4.621735933180E-01  3.071237623468E-01 -1.670541395759E-01
C45  4.796461143009E-01 -4.002669938976E-01  8.314554046775E-02
C46 -4.796461143009E-01  4.002669938976E-01 -8.314554046775E-02
C47  4.238510542826E-01 -2.943373637298E-01  8.036600025677E-03
C48 -4.238510542826E-01  2.943373637298E-01 -8.036600025677E-03
C49 -4.420315731017E-01  3.872588193388E-01  7.483008847872E-02
C50  4.420315731017E-01 -3.872588193388E-01 -7.483008847872E-02
C51 -3.858319454283E-01  2.814848070633E-01  1.509944404107E-01
C52  3.858319454283E-01 -2.814848070633E-01 -1.509944404107E-01
C53 -4.034884168756E-01  3.750916075696E-01  2.329215706898E-01
C54  4.034884168756E-01 -3.750916075696E-01 -2.329215706898E-01
C55 -3.459186415261E-01  2.693496658088E-01  3.107120518680E-01
C56  3.459186415261E-01 -2.693496658088E-01 -3.107120518680E-01
C57 -3.637852866677E-01  3.657569634211E-01  3.904915183758E-01
C58  3.637852866677E-01 -3.657569634211E-01 -3.904915183758E-01
H59 -4.524228510998E-01 -3.506711328022E-01  4.631238029232E-01
H60  4.524228510998E-01  3.506711328022E-01 -4.631238029232E-01
H61  4.445776929742E-01 -1.590061060446E-01  3.331394348564E-01
H62 -4.445776929742E-01  1.590061060446E-01 -3.331394348564E-01
H63  4.038528085110E-01 -1.482715517650E-01  1.733282101807E-01
H64 -4.038528085110E-01  1.482715517650E-01 -1.733282101807E-01
H65  3.654567528805E-01 -1.355350508645E-01  1.429757421410E-02
H66 -3.654567528805E-01  1.355350508645E-01 -1.429757421410E-02
H67 -3.274083438230E-01  1.226573057498E-01  1.448141128646E-01
H68  3.274083438230E-01 -1.226573057498E-01 -1.448141128646E-01
H69 -2.873172618752E-01  1.107469886426E-01  3.045876398594E-01
H70  2.873172618752E-01 -1.107469886426E-01 -3.045876398594E-01
H71 -3.193752383507E-01  2.844105456928E-01  4.488928415463E-01
H72  3.193752383507E-01 -2.844105456928E-01 -4.488928415463E-01


#===END

data_OPT_STEP_81

_symmetry_space_group_name_H-M 'P 1'
_cell_length_a      8.22894539
_cell_length_b      6.21622937
_cell_length_c     15.84387467
_cell_angle_alpha   98.905519
_cell_angle_beta  107.255133
_cell_angle_gamma   87.807435

loop_
_atom_site_label
_atom_site_fract_x
_atom_site_fract_y
_atom_site_fract_z
C1  1.304777729396E-01  4.930670500344E-02  4.045324650485E-01
C2 -1.304777729396E-01 -4.930670500344E-02 -4.045324650485E-01
C3 -8.153368736297E-03 -2.500209288855E-01  2.918317394780E-01
C4  8.153368736297E-03  2.500209288855E-01 -2.918317394780E-01
C5  4.889646320609E-02 -1.596422686876E-01  3.793036371113E-01
C6 -4.889646320609E-02  1.596422686876E-01 -3.793036371113E-01
C7  1.527040741600E-01  1.613595447548E-01  3.414766878077E-01
C8 -1.527040741600E-01 -1.613595447548E-01 -3.414766878077E-01
C9  9.547885912286E-02  7.297652222628E-02  2.484006336251E-01
C10 -9.547885912286E-02 -7.297652222628E-02 -2.484006336251E-01
C11  1.172077814135E-01  1.829644606140E-01  1.828653499013E-01
C12 -1.172077814135E-01 -1.829644606140E-01 -1.828653499013E-01
C13  5.987723975628E-02  9.487258185465E-02  9.134707911038E-02
C14 -5.987723975628E-02 -9.487258185465E-02 -9.134707911038E-02
C15  8.116364754253E-02  2.049410574628E-01  2.473539394086E-02
C16 -8.116364754253E-02 -2.049410574628E-01 -2.473539394086E-02
C17 -2.370355516238E-02 -1.167762959451E-01  6.579672399468E-02
C18  2.370355516238E-02  1.167762959451E-01 -6.579672399468E-02
C19 -4.455665718350E-02 -2.271209610519E-01  1.333752268410E-01
C20  4.455665718350E-02  2.271209610519E-01 -1.333752268410E-01
C21  1.247163656448E-02 -1.387851290598E-01  2.228719654383E-01
C22 -1.247163656448E-02  1.387851290598E-01 -2.228719654383E-01
H23  1.747084725346E-01  1.180637726968E-01  4.746846046280E-01
H24 -1.747084725346E-01 -1.180637726968E-01 -4.746846046280E-01
H25 -7.032454742202E-02 -4.081584696019E-01  2.727391062721E-01
H26  7.032454742202E-02  4.081584696019E-01 -2.727391062721E-01
H27  3.224083086114E-02 -2.459518944459E-01  4.306434294231E-01
H28 -3.224083086114E-02  2.459518944459E-01 -4.306434294231E-01
H29  2.134108835088E-01  3.205583677768E-01  3.601196174673E-01
H30 -2.134108835088E-01 -3.205583677768E-01 -3.601196174673E-01
H31  1.795356318726E-01  3.411814357940E-01  2.018841234107E-01
H32 -1.795356318726E-01 -3.411814357940E-01 -2.018841234107E-01
H33  1.435359114544E-01  3.630974901807E-01  4.374080403675E-02
H34 -1.435359114544E-01 -3.630974901807E-01 -4.374080403675E-02
H35 -1.067449097883E-01 -3.853886660942E-01  1.143348680883E-01
H36  1.067449097883E-01  3.853886660942E-01 -1.143348680883E-01
C37 -4.403682704288E-01 -4.247326521620E-01  3.986939989736E-01
C38  4.403682704288E-01  4.247326521620E-01 -3.986939989736E-01
C39 -4.973796463510E-01 -3.180084518085E-01  3.268315295206E-01
C40  4.973796463510E-01  3.180084518085E-01 -3.268315295206E-01
C41 -4.814282765001E-01 -4.124190392154E-01  2.412408575875E-01
C42  4.814282765001E-01  4.124190392154E-01 -2.412408575875E-01
C43  4.622311937626E-01 -3.071447535080E-01  1.670792921548E-01
C44 -4.622311937626E-01  3.071447535080E-01 -1.670792921548E-01
C45  4.796750930033E-01 -4.002775050826E-01  8.315866249471E-02
C46 -4.796750930033E-01  4.002775050826E-01 -8.315866249471E-02
C47  4.238806864917E-01 -2.943614440738E-01  8.067409141307E-03
C48 -4.238806864917E-01  2.943614440738E-01 -8.067409141307E-03
C49 -4.420338270285E-01  3.872727724936E-01  7.481133335220E-02
C50  4.420338270285E-01 -3.872727724936E-01 -7.481133335220E-02
C51 -3.858351477334E-01  2.815115916388E-01  1.509577724441E-01
C52  3.858351477334E-01 -2.815115916388E-01 -1.509577724441E-01
C53 -4.034647142746E-01  3.751068092983E-01  2.328965559663E-01
C54  4.034647142746E-01 -3.751068092983E-01 -2.328965559663E-01
C55 -3.458963322529E-01  2.693764157789E-01  3.106685451102E-01
C56  3.458963322529E-01 -2.693764157789E-01 -3.106685451102E-01
C57 -3.637340721231E-01  3.657727110467E-01  3.904599837015E-01
C58  3.637340721231E-01 -3.657727110467E-01 -3.904599837015E-01
H59 -4.523254849291E-01 -3.506967900333E-01  4.631315594028E-01
H60  4.523254849291E-01  3.506967900333E-01 -4.631315594028E-01
H61  4.446834788383E-01 -1.590483376584E-01  3.331817921419E-01
H62 -4.446834788383E-01  1.590483376584E-01 -3.331817921419E-01
H63  4.039319370084E-01 -1.483121940475E-01  1.733769723861E-01
H64 -4.039319370084E-01  1.483121940475E-01 -1.733769723861E-01
H65  3.655079084701E-01 -1.355788429669E-01  1.435173621742E-02
H66 -3.655079084701E-01  1.355788429669E-01 -1.435173621742E-02
H67 -3.274331874330E-01  1.227037862301E-01  1.447540889320E-01
H68  3.274331874330E-01 -1.227037862301E-01 -1.447540889320E-01
H69 -2.873180112562E-01  1.107923402986E-01  3.045210493912E-01
H70  2.873180112562E-01 -1.107923402986E-01 -3.045210493912E-01
H71 -3.193256705915E-01  2.844356072354E-01  4.488469703889E-01
H72  3.193256705915E-01 -2.844356072354E-01 -4.488469703889E-01


#===END

data_OPT_STEP_82

_symmetry_space_group_name_H-M 'P 1'
_cell_length_a      8.22480069
_cell_length_b      6.21803039
_cell_length_c     15.84337211
_cell_angle_alpha   98.903215
_cell_angle_beta  107.221813
_cell_angle_gamma   87.811234

loop_
_atom_site_label
_atom_site_fract_x
_atom_site_fract_y
_atom_site_fract_z
C1  1.305124122297E-01  4.933926183256E-02  4.045047199512E-01
C2 -1.305124122297E-01 -4.933926183256E-02 -4.045047199512E-01
C3 -8.068865627853E-03 -2.499601686128E-01  2.918585286483E-01
C4  8.068865627854E-03  2.499601686128E-01 -2.918585286483E-01
C5  4.896685545213E-02 -1.595827509449E-01  3.793106077547E-01
C6 -4.896685545213E-02  1.595827509449E-01 -3.793106077547E-01
C7  1.527170265941E-01  1.613695554846E-01  3.414347986200E-01
C8 -1.527170265941E-01 -1.613695554846E-01 -3.414347986200E-01
C9  9.550047522001E-02  7.298946926357E-02  2.483777017260E-01
C10 -9.550047522001E-02 -7.298946926357E-02 -2.483777017260E-01
C11  1.171991448686E-01  1.829573739713E-01  1.828269371059E-01
C12 -1.171991448686E-01 -1.829573739713E-01 -1.828269371059E-01
C13  5.987260284326E-02  9.486871503761E-02  9.132737659796E-02
C14 -5.987260284326E-02 -9.486871503761E-02 -9.132737659796E-02
C15  8.112548435945E-02  2.049178955487E-01  2.469985575584E-02
C16 -8.112548435945E-02 -2.049178955487E-01 -2.469985575584E-02
C17 -2.366876249985E-02 -1.167563501632E-01  6.581328836786E-02
C18  2.366876249985E-02  1.167563501632E-01 -6.581328836786E-02
C19 -4.449049910777E-02 -2.270804126770E-01  1.334069736190E-01
C20  4.449049910777E-02  2.270804126770E-01 -1.334069736190E-01
C21  1.253137584455E-02 -1.387471518649E-01  2.228846739166E-01
C22 -1.253137584455E-02  1.387471518649E-01 -2.228846739166E-01
H23  1.747310628553E-01  1.180938826194E-01  4.746421460254E-01
H24 -1.747310628553E-01 -1.180938826194E-01 -4.746421460254E-01
H25 -7.021386839245E-02 -4.080771623390E-01  2.727923962071E-01
H26  7.021386839245E-02  4.080771623390E-01 -2.727923962071E-01
H27  3.232519599082E-02 -2.458727129486E-01  4.306610847839E-01
H28 -3.232519599082E-02  2.458727129486E-01 -4.306610847839E-01
H29  2.134010989297E-01  3.205447580703E-01  3.600527021690E-01
H30 -2.134010989297E-01 -3.205447580703E-01 -3.600527021690E-01
H31  1.794992531376E-01  3.411552561754E-01  2.018184666777E-01
H32 -1.794992531376E-01 -3.411552561754E-01 -2.018184666777E-01
H33  1.434691283220E-01  3.630559422589E-01  4.367768153971E-02
H34 -1.434691283220E-01 -3.630559422589E-01 -4.367768153971E-02
H35 -1.066519274984E-01 -3.853283204933E-01  1.143937209482E-01
H36  1.066519274984E-01  3.853283204933E-01 -1.143937209482E-01
C37 -4.402857653555E-01 -4.247436350363E-01  3.986942977752E-01
C38  4.402857653555E-01  4.247436350363E-01 -3.986942977752E-01
C39 -4.972945767605E-01 -3.180300182449E-01  3.268502586470E-01
C40  4.972945767605E-01  3.180300182449E-01 -3.268502586470E-01
C41 -4.813709647704E-01 -4.124279828835E-01  2.412482941350E-01
C42  4.813709647704E-01  4.124279828835E-01 -2.412482941350E-01
C43  4.622898603172E-01 -3.071659461078E-01  1.671045811746E-01
C44 -4.622898603172E-01  3.071659461078E-01 -1.671045811746E-01
C45  4.797045639428E-01 -4.002883186264E-01  8.317179519483E-02
C46 -4.797045639428E-01  4.002883186264E-01 -8.317179519483E-02
C47  4.239100508215E-01 -2.943860166013E-01  8.097853879373E-03
C48 -4.239100508215E-01  2.943860166013E-01 -8.097853879373E-03
C49 -4.420346516746E-01  3.872869924179E-01  7.479313077824E-02
C50  4.420346516746E-01 -3.872869924179E-01 -7.479313077824E-02
C51 -3.858368729459E-01  2.815383722861E-01  1.509218329896E-01
C52  3.858368729459E-01 -2.815383722861E-01 -1.509218329896E-01
C53 -4.034387409487E-01  3.751220532697E-01  2.328725593028E-01
C54  4.034387409487E-01 -3.751220532697E-01 -2.328725593028E-01
C55 -3.458710482982E-01  2.694025507320E-01  3.106262656275E-01
C56  3.458710482982E-01 -2.694025507320E-01 -3.106262656275E-01
C57 -3.636798903354E-01  3.657871459870E-01  3.904296746258E-01
C58  3.636798903354E-01 -3.657871459870E-01 -3.904296746258E-01
H59 -4.522278104678E-01 -3.507234100631E-01  4.631397169173E-01
H60  4.522278104678E-01  3.507234100631E-01 -4.631397169173E-01
H61  4.447870138572E-01 -1.590915775469E-01  3.332233007579E-01
H62 -4.447870138572E-01  1.590915775469E-01 -3.332233007579E-01
H63  4.040119026004E-01 -1.483534348724E-01  1.734256354767E-01
H64 -4.040119026004E-01  1.483534348724E-01 -1.734256354767E-01
H65  3.655582279322E-01 -1.356236414703E-01  1.440535438159E-02
H66 -3.655582279322E-01  1.356236414703E-01 -1.440535438159E-02
H67 -3.274570870709E-01  1.227499840070E-01  1.446947164577E-01
H68  3.274570870709E-01 -1.227499840070E-01 -1.446947164577E-01
H69 -2.873141948944E-01  1.108378795550E-01  3.044560779145E-01
H70  2.873141948944E-01 -1.108378795550E-01 -3.044560779145E-01
H71 -3.192720080982E-01  2.844585970696E-01  4.488026385910E-01
H72  3.192720080982E-01 -2.844585970696E-01 -4.488026385910E-01


#===END

data_OPT_STEP_83

_symmetry_space_group_name_H-M 'P 1'
_cell_length_a      8.22070319
_cell_length_b      6.21979145
_cell_length_c     15.84283267
_cell_angle_alpha   98.900453
_cell_angle_beta  107.187950
_cell_angle_gamma   87.815199

loop_
_atom_site_label
_atom_site_fract_x
_atom_site_fract_y
_atom_site_fract_z
C1  1.305496456518E-01  4.937161750421E-02  4.044776110995E-01
C2 -1.305496456518E-01 -4.937161750421E-02 -4.044776110995E-01
C3 -7.984414490768E-03 -2.499007943544E-01  2.918868709681E-01
C4  7.984414490768E-03  2.499007943544E-01 -2.918868709681E-01
C5  4.903959174023E-02 -1.595238371859E-01  3.793194411501E-01
C6 -4.903959174023E-02  1.595238371859E-01 -3.793194411501E-01
C7  1.527313802531E-01  1.613788550957E-01  3.413923688918E-01
C8 -1.527313802531E-01 -1.613788550957E-01 -3.413923688918E-01
C9  9.552203320477E-02  7.300101497114E-02  2.483542209640E-01
C10 -9.552203320477E-02 -7.300101497114E-02 -2.483542209640E-01
C11  1.171902122667E-01  1.829489738991E-01  1.827873029056E-01
C12 -1.171902122667E-01 -1.829489738991E-01 -1.827873029056E-01
C13  5.986797513841E-02  9.486414395002E-02  9.130708218964E-02
C14 -5.986797513841E-02 -9.486414395002E-02 -9.130708218964E-02
C15  8.108783020786E-02  2.048945722900E-01  2.466366419928E-02
C16 -8.108783020786E-02 -2.048945722900E-01 -2.466366419928E-02
C17 -2.363483420564E-02 -1.167366825819E-01  6.583009541984E-02
C18  2.363483420564E-02  1.167366825819E-01 -6.583009541984E-02
C19 -4.442519258607E-02 -2.270408363447E-01  1.334395033982E-01
C20  4.442519258607E-02  2.270408363447E-01 -1.334395033982E-01
C21  1.259048901781E-02 -1.387105800185E-01  2.228978583639E-01
C22 -1.259048901781E-02  1.387105800185E-01 -2.228978583639E-01
H23  1.747590290856E-01  1.181238001108E-01  4.746004024633E-01
H24 -1.747590290856E-01 -1.181238001108E-01 -4.746004024633E-01
H25 -7.010417006917E-02 -4.079974169241E-01  2.728480727366E-01
H26  7.010417006917E-02  4.079974169241E-01 -2.728480727366E-01
H27  3.241145060475E-02 -2.457924274651E-01  4.306814782219E-01
H28 -3.241145060475E-02  2.457924274651E-01 -4.306814782219E-01
H29  2.133924444598E-01  3.205309638726E-01  3.599844511252E-01
H30 -2.133924444598E-01 -3.205309638726E-01 -3.599844511252E-01
H31  1.794616432495E-01  3.411287686155E-01  2.017506996372E-01
H32 -1.794616432495E-01 -3.411287686155E-01 -2.017506996372E-01
H33  1.434041464432E-01  3.630136623222E-01  4.361345915390E-02
H34 -1.434041464432E-01 -3.630136623222E-01 -4.361345915390E-02
H35 -1.065604508214E-01 -3.852688463915E-01  1.144540351412E-01
H36  1.065604508214E-01  3.852688463915E-01 -1.144540351412E-01
C37 -4.402011802689E-01 -4.247554432280E-01  3.986951359805E-01
C38  4.402011802689E-01  4.247554432280E-01 -3.986951359805E-01
C39 -4.972078505650E-01 -3.180523988551E-01  3.268694732394E-01
C40  4.972078505650E-01  3.180523988551E-01 -3.268694732394E-01
C41 -4.813127907740E-01 -4.124375757619E-01  2.412559880680E-01
C42  4.813127907740E-01  4.124375757619E-01 -2.412559880680E-01
C43  4.623478545613E-01 -3.071871243044E-01  1.671296937522E-01
C44 -4.623478545613E-01  3.071871243044E-01 -1.671296937522E-01
C45  4.797338989221E-01 -4.002988013801E-01  8.318493392938E-02
C46 -4.797338989221E-01  4.002988013801E-01 -8.318493392938E-02
C47  4.239389325755E-01 -2.944096887437E-01  8.128103645210E-03
C48 -4.239389325755E-01  2.944096887437E-01 -8.128103645210E-03
C49 -4.420357453860E-01  3.873005912666E-01  7.477500748171E-02
C50  4.420357453860E-01 -3.873005912666E-01 -7.477500748171E-02
C51 -3.858377299015E-01  2.815643505510E-01  1.508863976084E-01
C52  3.858377299015E-01 -2.815643505510E-01 -1.508863976084E-01
C53 -4.034124489917E-01  3.751361460389E-01  2.328487367784E-01
C54  4.034124489917E-01 -3.751361460389E-01 -2.328487367784E-01
C55 -3.458445814577E-01  2.694278791109E-01  3.105845543134E-01
C56  3.458445814577E-01 -2.694278791109E-01 -3.105845543134E-01
C57 -3.636246122144E-01  3.658011481034E-01  3.903998311974E-01
C58  3.636246122144E-01 -3.658011481034E-01 -3.903998311974E-01
H59 -4.521283446010E-01 -3.507510687285E-01  4.631483220949E-01
H60  4.521283446010E-01  3.507510687285E-01 -4.631483220949E-01
H61  4.448930546109E-01 -1.591345748946E-01  3.332656419792E-01
H62 -4.448930546109E-01  1.591345748946E-01 -3.332656419792E-01
H63  4.040904550187E-01 -1.483939525444E-01  1.734738302703E-01
H64 -4.040904550187E-01  1.483939525444E-01 -1.734738302703E-01
H65  3.656080019907E-01 -1.356665467876E-01  1.445855056257E-02
H66 -3.656080019907E-01  1.356665467876E-01 -1.445855056257E-02
H67 -3.274787817517E-01  1.227955049892E-01  1.446363798593E-01
H68  3.274787817517E-01 -1.227955049892E-01 -1.446363798593E-01
H69 -2.873098088374E-01  1.108815470001E-01  3.043917192033E-01
H70  2.873098088374E-01 -1.108815470001E-01 -3.043917192033E-01
H71 -3.192176060097E-01  2.844814264863E-01  4.487588659168E-01
H72  3.192176060097E-01 -2.844814264863E-01 -4.487588659168E-01


#===END

data_OPT_STEP_84

_symmetry_space_group_name_H-M 'P 1'
_cell_length_a      8.21666197
_cell_length_b      6.22151512
_cell_length_c     15.84226167
_cell_angle_alpha   98.897169
_cell_angle_beta  107.153554
_cell_angle_gamma   87.819411

loop_
_atom_site_label
_atom_site_fract_x
_atom_site_fract_y
_atom_site_fract_z
C1  1.305870215909E-01  4.940337248658E-02  4.044503372135E-01
C2 -1.305870215909E-01 -4.940337248658E-02 -4.044503372135E-01
C3 -7.898150522533E-03 -2.498417542988E-01  2.919169815861E-01
C4  7.898150522533E-03  2.498417542988E-01 -2.919169815861E-01
C5  4.911225854772E-02 -1.594657825489E-01  3.793289940084E-01
C6 -4.911225854772E-02  1.594657825489E-01 -3.793289940084E-01
C7  1.527471314265E-01  1.613885377714E-01  3.413496533662E-01
C8 -1.527471314265E-01 -1.613885377714E-01 -3.413496533662E-01
C9  9.554580234361E-02  7.301342339694E-02  2.483311236001E-01
C10 -9.554580234361E-02 -7.301342339694E-02 -2.483311236001E-01
C11  1.171835001179E-01  1.829418207639E-01  1.827474367881E-01
C12 -1.171835001179E-01 -1.829418207639E-01 -1.827474367881E-01
C13  5.986431568853E-02  9.486025737645E-02  9.128661071282E-02
C14 -5.986431568853E-02 -9.486025737645E-02 -9.128661071282E-02
C15  8.105015559655E-02  2.048721088778E-01  2.462606221665E-02
C16 -8.105015559655E-02 -2.048721088778E-01 -2.462606221665E-02
C17 -2.359962393566E-02 -1.167174540712E-01  6.584801975306E-02
C18  2.359962393566E-02  1.167174540712E-01 -6.584801975306E-02
C19 -4.435826350692E-02 -2.270015441622E-01  1.334739051309E-01
C20  4.435826350692E-02  2.270015441622E-01 -1.334739051309E-01
C21  1.265173654002E-02 -1.386737779898E-01  2.229125370379E-01
C22 -1.265173654002E-02  1.386737779898E-01 -2.229125370379E-01
H23  1.747844866938E-01  1.181532126305E-01  4.745578350883E-01
H24 -1.747844866938E-01 -1.181532126305E-01 -4.745578350883E-01
H25 -6.999187911283E-02 -4.079184822392E-01  2.729063741234E-01
H26  6.999187911283E-02  4.079184822392E-01 -2.729063741234E-01
H27  3.249806624673E-02 -2.457145623869E-01  4.307028164562E-01
H28 -3.249806624673E-02  2.457145623869E-01 -4.307028164562E-01
H29  2.133856837310E-01  3.205179026816E-01  3.599152721798E-01
H30 -2.133856837310E-01 -3.205179026816E-01 -3.599152721798E-01
H31  1.794273436743E-01  3.411031778001E-01  2.016819550412E-01
H32 -1.794273436743E-01 -3.411031778001E-01 -2.016819550412E-01
H33  1.433381916305E-01  3.629733156793E-01  4.354665838972E-02
H34 -1.433381916305E-01 -3.629733156793E-01 -4.354665838972E-02
H35 -1.064669971156E-01 -3.852103963113E-01  1.145171669172E-01
H36  1.064669971156E-01  3.852103963113E-01 -1.145171669172E-01
C37 -4.401162237092E-01 -4.247679023146E-01  3.986961840562E-01
C38  4.401162237092E-01  4.247679023146E-01 -3.986961840562E-01
C39 -4.971213687468E-01 -3.180750814888E-01  3.268884272813E-01
C40  4.971213687468E-01  3.180750814888E-01 -3.268884272813E-01
C41 -4.812541315394E-01 -4.124475429642E-01  2.412637366595E-01
C42  4.812541315394E-01  4.124475429642E-01 -2.412637366595E-01
C43  4.624068023925E-01 -3.072087471986E-01  1.671548323659E-01
C44 -4.624068023925E-01  3.072087471986E-01 -1.671548323659E-01
C45  4.797633984062E-01 -4.003099351566E-01  8.319794052839E-02
C46 -4.797633984062E-01  4.003099351566E-01 -8.319794052839E-02
C47  4.239672900464E-01 -2.944337307899E-01  8.157924014157E-03
C48 -4.239672900464E-01  2.944337307899E-01 -8.157924014157E-03
C49 -4.420355040458E-01  3.873139831201E-01  7.475730452493E-02
C50  4.420355040458E-01 -3.873139831201E-01 -7.475730452493E-02
C51 -3.858372276828E-01  2.815896402232E-01  1.508514755528E-01
C52  3.858372276828E-01 -2.815896402232E-01 -1.508514755528E-01
C53 -4.033840845437E-01  3.751500083730E-01  2.328257032064E-01
C54  4.033840845437E-01 -3.751500083730E-01 -2.328257032064E-01
C55 -3.458158757982E-01  2.694521468240E-01  3.105438042670E-01
C56  3.458158757982E-01 -2.694521468240E-01 -3.105438042670E-01
C57 -3.635669802256E-01  3.658137966089E-01  3.903709504258E-01
C58  3.635669802256E-01 -3.658137966089E-01 -3.903709504258E-01
H59 -4.520282680035E-01 -3.507791374689E-01  4.631572224948E-01
H60  4.520282680035E-01  3.507791374689E-01 -4.631572224948E-01
H61  4.449972694762E-01 -1.591785848308E-01  3.333068754240E-01
H62 -4.449972694762E-01  1.591785848308E-01 -3.333068754240E-01
H63  4.041701461928E-01 -1.484351290965E-01  1.735219382543E-01
H64 -4.041701461928E-01  1.484351290965E-01 -1.735219382543E-01
H65  3.656567489344E-01 -1.357104200144E-01  1.451108852605E-02
H66 -3.656567489344E-01  1.357104200144E-01 -1.451108852605E-02
H67 -3.274999020639E-01  1.228396634328E-01  1.445784711927E-01
H68  3.274999020639E-01 -1.228396634328E-01 -1.445784711927E-01
H69 -2.873018844224E-01  1.109248475503E-01  3.043287864525E-01
H70  2.873018844224E-01 -1.109248475503E-01 -3.043287864525E-01
H71 -3.191596275233E-01  2.845024295152E-01  4.487164033825E-01
H72  3.191596275233E-01 -2.845024295152E-01 -4.487164033825E-01


#===END

data_OPT_STEP_85

_symmetry_space_group_name_H-M 'P 1'
_cell_length_a      8.21267487
_cell_length_b      6.22319662
_cell_length_c     15.84165114
_cell_angle_alpha   98.893454
_cell_angle_beta  107.118608
_cell_angle_gamma   87.823817

loop_
_atom_site_label
_atom_site_fract_x
_atom_site_fract_y
_atom_site_fract_z
C1  1.306268756875E-01  4.943487607193E-02  4.044236889218E-01
C2 -1.306268756875E-01 -4.943487607193E-02 -4.044236889218E-01
C3 -7.812223213317E-03 -2.497841780371E-01  2.919485988581E-01
C4  7.812223213317E-03  2.497841780371E-01 -2.919485988581E-01
C5  4.918692560059E-02 -1.594084902303E-01  3.793403452259E-01
C6 -4.918692560059E-02  1.594084902303E-01 -3.793403452259E-01
C7  1.527641982006E-01  1.613975413365E-01  3.413063989652E-01
C8 -1.527641982006E-01 -1.613975413365E-01 -3.413063989652E-01
C9  9.556930006299E-02  7.302465048397E-02  2.483075140704E-01
C10 -9.556930006299E-02 -7.302465048397E-02 -2.483075140704E-01
C11  1.171760497549E-01  1.829339040994E-01  1.827063510209E-01
C12 -1.171760497549E-01 -1.829339040994E-01 -1.827063510209E-01
C13  5.986039681013E-02  9.485597313737E-02  9.126553597944E-02
C14 -5.986039681013E-02 -9.485597313737E-02 -9.126553597944E-02
C15  8.101275986706E-02  2.048497511748E-01  2.458774341248E-02
C16 -8.101275986706E-02 -2.048497511748E-01 -2.458774341248E-02
C17 -2.356522604269E-02 -1.166984984503E-01  6.586623709154E-02
C18  2.356522604269E-02  1.166984984503E-01 -6.586623709154E-02
C19 -4.429210735150E-02 -2.269633150882E-01  1.335091939201E-01
C20  4.429210735150E-02  2.269633150882E-01 -1.335091939201E-01
C21  1.271228160401E-02 -1.386383644156E-01  2.229277204374E-01
C22 -1.271228160401E-02  1.386383644156E-01 -2.229277204374E-01
H23  1.748155358838E-01  1.181824385549E-01  4.745160506165E-01
H24 -1.748155358838E-01 -1.181824385549E-01 -4.745160506165E-01
H25 -6.988107892749E-02 -4.078411399179E-01  2.729669000695E-01
H26  6.988107892749E-02  4.078411399179E-01 -2.729669000695E-01
H27  3.258659578629E-02 -2.456368232283E-01  4.307267118680E-01
H28 -3.258659578629E-02  2.456368232283E-01 -4.307267118680E-01
H29  2.133807021298E-01  3.205039607870E-01  3.598446326843E-01
H30 -2.133807021298E-01 -3.205039607870E-01 -3.598446326843E-01
H31  1.793916625135E-01  3.410777597013E-01  2.016111239552E-01
H32 -1.793916625135E-01 -3.410777597013E-01 -2.016111239552E-01
H33  1.432735175054E-01  3.629328456521E-01  4.347865569246E-02
H34 -1.432735175054E-01 -3.629328456521E-01 -4.347865569246E-02
H35 -1.063749086447E-01 -3.851529888520E-01  1.145818841445E-01
H36  1.063749086447E-01  3.851529888520E-01 -1.145818841445E-01
C37 -4.400294081820E-01 -4.247805092016E-01  3.986979485995E-01
C38  4.400294081820E-01  4.247805092016E-01 -3.986979485995E-01
C39 -4.970334633340E-01 -3.180979017705E-01  3.269079775157E-01
C40  4.970334633340E-01  3.180979017705E-01 -3.269079775157E-01
C41 -4.811946306463E-01 -4.124575857714E-01  2.412718893510E-01
C42  4.811946306463E-01  4.124575857714E-01 -2.412718893510E-01
C43  4.624650806282E-01 -3.072298594018E-01  1.671798173132E-01
C44 -4.624650806282E-01  3.072298594018E-01 -1.671798173132E-01
C45  4.797930264571E-01 -4.003202978081E-01  8.321104117196E-02
C46 -4.797930264571E-01  4.003202978081E-01 -8.321104117196E-02
C47  4.239953141663E-01 -2.944569006091E-01  8.187551211651E-03
C48 -4.239953141663E-01  2.944569006091E-01 -8.187551211651E-03
C49 -4.420352810456E-01  3.873271965825E-01  7.473985497178E-02
C50  4.420352810456E-01 -3.873271965825E-01 -7.473985497178E-02
C51 -3.858355890650E-01  2.816148375136E-01  1.508173213745E-01
C52  3.858355890650E-01 -2.816148375136E-01 -1.508173213745E-01
C53 -4.033551137737E-01  3.751632780938E-01  2.328031208550E-01
C54  4.033551137737E-01 -3.751632780938E-01 -2.328031208550E-01
C55 -3.457854526016E-01  2.694762730755E-01  3.105039666651E-01
C56  3.457854526016E-01 -2.694762730755E-01 -3.105039666651E-01
C57 -3.635079876656E-01  3.658265024397E-01  3.903428306129E-01
C58  3.635079876656E-01 -3.658265024397E-01 -3.903428306129E-01
H59 -4.519269559149E-01 -3.508077211894E-01  4.631665589993E-01
H60  4.519269559149E-01  3.508077211894E-01 -4.631665589993E-01
H61  4.451033687076E-01 -1.592217922279E-01  3.333489020675E-01
H62 -4.451033687076E-01  1.592217922279E-01 -3.333489020675E-01
H63  4.042480615121E-01 -1.484753298383E-01  1.735694375325E-01
H64 -4.042480615121E-01  1.484753298383E-01 -1.735694375325E-01
H65  3.657048915729E-01 -1.357523530154E-01  1.456319707474E-02
H66 -3.657048915729E-01  1.357523530154E-01 -1.456319707474E-02
H67 -3.275182600508E-01  1.228840700158E-01  1.445219409013E-01
H68  3.275182600508E-01 -1.228840700158E-01 -1.445219409013E-01
H69 -2.872924525165E-01  1.109671469726E-01  3.042668679767E-01
H70  2.872924525165E-01 -1.109671469726E-01 -3.042668679767E-01
H71 -3.191009373597E-01  2.845235435317E-01  4.486747905374E-01
H72  3.191009373597E-01 -2.845235435317E-01 -4.486747905374E-01


#===END

data_OPT_STEP_86

_symmetry_space_group_name_H-M 'P 1'
_cell_length_a      8.20874711
_cell_length_b      6.22483573
_cell_length_c     15.84101223
_cell_angle_alpha   98.889179
_cell_angle_beta  107.083150
_cell_angle_gamma   87.828484

loop_
_atom_site_label
_atom_site_fract_x
_atom_site_fract_y
_atom_site_fract_z
C1  1.306668689218E-01  4.946606853314E-02  4.043968742549E-01
C2 -1.306668689218E-01 -4.946606853314E-02 -4.043968742549E-01
C3 -7.724622939569E-03 -2.497268612058E-01  2.919819885900E-01
C4  7.724622939569E-03  2.497268612058E-01 -2.919819885900E-01
C5  4.926155357572E-02 -1.593518268221E-01  3.793524571740E-01
C6 -4.926155357572E-02  1.593518268221E-01 -3.793524571740E-01
C7  1.527827272411E-01  1.614071541820E-01  3.412628613845E-01
C8 -1.527827272411E-01 -1.614071541820E-01 -3.412628613845E-01
C9  9.559505581434E-02  7.303670004773E-02  2.482842430441E-01
C10 -9.559505581434E-02 -7.303670004773E-02 -2.482842430441E-01
C11  1.171711805382E-01  1.829269004945E-01  1.826649991473E-01
C12 -1.171711805382E-01 -1.829269004945E-01 -1.826649991473E-01
C13  5.985769188440E-02  9.485215531119E-02  9.124430255693E-02
C14 -5.985769188440E-02 -9.485215531119E-02 -9.124430255693E-02
C15  8.097561594008E-02  2.048280956864E-01  2.454807241968E-02
C16 -8.097561594008E-02 -2.048280956864E-01 -2.454807241968E-02
C17 -2.352975279295E-02 -1.166799748278E-01  6.588551800376E-02
C18  2.352975279295E-02  1.166799748278E-01 -6.588551800376E-02
C19 -4.422466144761E-02 -2.269254758888E-01  1.335462350718E-01
C20  4.422466144761E-02  2.269254758888E-01 -1.335462350718E-01
C21  1.277474102109E-02 -1.386027262232E-01  2.229443368245E-01
C22 -1.277474102109E-02  1.386027262232E-01 -2.229443368245E-01
H23  1.748439835579E-01  1.182114332355E-01  4.744733849579E-01
H24 -1.748439835579E-01 -1.182114332355E-01 -4.744733849579E-01
H25 -6.976782969938E-02 -4.077646934162E-01  2.730301429254E-01
H26  6.976782969938E-02  4.077646934162E-01 -2.730301429254E-01
H27  3.267507641354E-02 -2.455604512981E-01  4.307516761171E-01
H28 -3.267507641354E-02  2.455604512981E-01 -4.307516761171E-01
H29  2.133771905774E-01  3.204917140466E-01  3.597731594608E-01
H30 -2.133771905774E-01 -3.204917140466E-01 -3.597731594608E-01
H31  1.793594032528E-01  3.410531683191E-01  2.015392328339E-01
H32 -1.793594032528E-01 -3.410531683191E-01 -2.015392328339E-01
H33  1.432085501539E-01  3.628939573282E-01  4.340818670983E-02
H34 -1.432085501539E-01 -3.628939573282E-01 -4.340818670983E-02
H35 -1.062813136981E-01 -3.850966977754E-01  1.146492653523E-01
H36  1.062813136981E-01  3.850966977754E-01 -1.146492653523E-01
C37 -4.399423256155E-01 -4.247933577843E-01  3.986997380347E-01
C38  4.399423256156E-01  4.247933577843E-01 -3.986997380347E-01
C39 -4.969459756093E-01 -3.181207270486E-01  3.269270297222E-01
C40  4.969459756093E-01  3.181207270486E-01 -3.269270297222E-01
C41 -4.811348711135E-01 -4.124678700058E-01  2.412799039621E-01
C42  4.811348711135E-01  4.124678700058E-01 -2.412799039621E-01
C43  4.625240033803E-01 -3.072514266868E-01  1.672046162332E-01
C44 -4.625240033803E-01  3.072514266868E-01 -1.672046162332E-01
C45  4.798224465524E-01 -4.003314640536E-01  8.322383844853E-02
C46 -4.798224465524E-01  4.003314640536E-01 -8.322383844853E-02
C47  4.240224478341E-01 -2.944804137635E-01  8.216555629289E-03
C48 -4.240224478341E-01  2.944804137635E-01 -8.216555629289E-03
C49 -4.420339048090E-01  3.873400564322E-01  7.472279434205E-02
C50  4.420339048090E-01 -3.873400564322E-01 -7.472279434205E-02
C51 -3.858327259745E-01  2.816392147847E-01  1.507836765395E-01
C52  3.858327259745E-01 -2.816392147847E-01 -1.507836765395E-01
C53 -4.033244486603E-01  3.751763167961E-01  2.327811763963E-01
C54  4.033244486603E-01 -3.751763167961E-01 -2.327811763963E-01
C55 -3.457534045476E-01  2.694994948316E-01  3.104649572500E-01
C56  3.457534045476E-01 -2.694994948316E-01 -3.104649572500E-01
C57 -3.634472454710E-01  3.658383332867E-01  3.903154818442E-01
C58  3.634472454710E-01 -3.658383332867E-01 -3.903154818442E-01
H59 -4.518247528260E-01 -3.508360644112E-01  4.631761225040E-01
H60  4.518247528260E-01  3.508360644112E-01 -4.631761225040E-01
H61  4.452077934987E-01 -1.592654561717E-01  3.333896170377E-01
H62 -4.452077934987E-01  1.592654561717E-01 -3.333896170377E-01
H63  4.043269284335E-01 -1.485159550367E-01  1.736166255626E-01
H64 -4.043269284335E-01  1.485159550367E-01 -1.736166255626E-01
H65  3.657517250520E-01 -1.357952102598E-01  1.461433947400E-02
H66 -3.657517250520E-01  1.357952102598E-01 -1.461433947400E-02
H67 -3.275363200195E-01  1.229267551624E-01  1.444658809439E-01
H68  3.275363200195E-01 -1.229267551624E-01 -1.444658809439E-01
H69 -2.872805007810E-01  1.110088768708E-01  3.042062813260E-01
H70  2.872805007810E-01 -1.110088768708E-01 -3.042062813260E-01
H71 -3.190392469568E-01  2.845435012668E-01  4.486343580686E-01
H72  3.190392469568E-01 -2.845435012668E-01 -4.486343580686E-01


#===END

data_OPT_STEP_87

_symmetry_space_group_name_H-M 'P 1'
_cell_length_a      8.20488012
_cell_length_b      6.22643012
_cell_length_c     15.84033420
_cell_angle_alpha   98.884482
_cell_angle_beta  107.047156
_cell_angle_gamma   87.833358

loop_
_atom_site_label
_atom_site_fract_x
_atom_site_fract_y
_atom_site_fract_z
C1  1.307091118872E-01  4.949703884489E-02  4.043706375718E-01
C2 -1.307091118872E-01 -4.949703884489E-02 -4.043706375718E-01
C3 -7.637566613798E-03 -2.496710367824E-01  2.920168905219E-01
C4  7.637566613798E-03  2.496710367824E-01 -2.920168905219E-01
C5  4.933775821143E-02 -1.592959503076E-01  3.793663168021E-01
C6 -4.933775821143E-02  1.592959503076E-01 -3.793663168021E-01
C7  1.528025006846E-01  1.614161521471E-01  3.412187687058E-01
C8 -1.528025006846E-01 -1.614161521471E-01 -3.412187687058E-01
C9  9.562049332414E-02  7.304777383937E-02  2.482604965350E-01
C10 -9.562049332414E-02 -7.304777383937E-02 -2.482604965350E-01
C11  1.171653852657E-01  1.829196302206E-01  1.826224598346E-01
C12 -1.171653852657E-01 -1.829196302206E-01 -1.826224598346E-01
C13  5.985456811550E-02  9.484828023712E-02  9.122246870016E-02
C14 -5.985456811550E-02 -9.484828023712E-02 -9.122246870016E-02
C15  8.093867173311E-02  2.048068884970E-01  2.450763993396E-02
C16 -8.093867173311E-02 -2.048068884970E-01 -2.450763993396E-02
C17 -2.349500015479E-02 -1.166618349664E-01  6.590514058806E-02
C18  2.349500015479E-02  1.166618349664E-01 -6.590514058806E-02
C19 -4.415793557341E-02 -2.268887444131E-01  1.335842753253E-01
C20  4.415793557341E-02  2.268887444131E-01 -1.335842753253E-01
C21  1.283652178336E-02 -1.385684446673E-01  2.229615470976E-01
C22 -1.283652178336E-02  1.385684446673E-01 -2.229615470976E-01
H23  1.748777262330E-01  1.182404314846E-01  4.744314770513E-01
H24 -1.748777262330E-01 -1.182404314846E-01 -4.744314770513E-01
H25 -6.965629890671E-02 -4.076898558197E-01  2.730955768077E-01
H26  6.965629890671E-02  4.076898558197E-01 -2.730955768077E-01
H27  3.276522699265E-02 -2.454848446424E-01  4.307790748728E-01
H28 -3.276522699265E-02  2.454848446424E-01 -4.307790748728E-01
H29  2.133759038598E-01  3.204782010700E-01  3.597001359247E-01
H30 -2.133759038598E-01 -3.204782010700E-01 -3.597001359247E-01
H31  1.793259341395E-01  3.410290611475E-01  2.014653333017E-01
H32 -1.793259341395E-01 -3.410290611475E-01 -2.014653333017E-01
H33  1.431445267428E-01  3.628555679678E-01  4.333639940153E-02
H34 -1.431445267428E-01 -3.628555679678E-01 -4.333639940153E-02
H35 -1.061889406141E-01 -3.850416351694E-01  1.147183833848E-01
H36  1.061889406141E-01  3.850416351694E-01 -1.147183833848E-01
C37 -4.398536430818E-01 -4.248056662869E-01  3.987023371219E-01
C38  4.398536430818E-01  4.248056662869E-01 -3.987023371219E-01
C39 -4.968571803249E-01 -3.181430354928E-01  3.269467332132E-01
C40  4.968571803249E-01  3.181430354928E-01 -3.269467332132E-01
C41 -4.810742925077E-01 -4.124777367591E-01  2.412884210961E-01
C42  4.810742925077E-01  4.124777367591E-01 -2.412884210961E-01
C43  4.625823984218E-01 -3.072720759795E-01  1.672293217528E-01
C44 -4.625823984218E-01  3.072720759795E-01 -1.672293217528E-01
C45  4.798522228267E-01 -4.003415266071E-01  8.323681284491E-02
C46 -4.798522228267E-01  4.003415266071E-01 -8.323681284491E-02
C47  4.240494796036E-01 -2.945029110632E-01  8.245388108616E-03
C48 -4.240494796036E-01  2.945029110632E-01 -8.245388108616E-03
C49 -4.420324186751E-01  3.873529304586E-01  7.470605935493E-02
C50  4.420324186751E-01 -3.873529304586E-01 -7.470605935493E-02
C51 -3.858286889164E-01  2.816637798421E-01  1.507509289733E-01
C52  3.858286889164E-01 -2.816637798421E-01 -1.507509289733E-01
C53 -4.032929647951E-01  3.751892923245E-01  2.327599014525E-01
C54  4.032929647951E-01 -3.751892923245E-01 -2.327599014525E-01
C55 -3.457193454938E-01  2.695230432395E-01  3.104271270012E-01
C56  3.457193454938E-01 -2.695230432395E-01 -3.104271270012E-01
C57 -3.633849095853E-01  3.658506990648E-01  3.902891543297E-01
C58  3.633849095853E-01 -3.658506990648E-01 -3.902891543297E-01
H59 -4.517218335908E-01 -3.508641647932E-01  4.631861007113E-01
H60  4.517218335908E-01  3.508641647932E-01 -4.631861007113E-01
H61  4.453137206463E-01 -1.593077926107E-01  3.334310293170E-01
H62 -4.453137206463E-01  1.593077926107E-01 -3.334310293170E-01
H63  4.044040711124E-01 -1.485552448310E-01  1.736632008024E-01
H64 -4.044040711124E-01  1.485552448310E-01 -1.736632008024E-01
H65  3.657980382613E-01 -1.358360189734E-01  1.466504879045E-02
H66 -3.657980382613E-01  1.358360189734E-01 -1.466504879045E-02
H67 -3.275514656550E-01  1.229700942718E-01  1.444113766120E-01
H68  3.275514656550E-01 -1.229700942718E-01 -1.444113766120E-01
H69 -2.872663482424E-01  1.110502855205E-01  3.041470706217E-01
H70  2.872663482424E-01 -1.110502855205E-01 -3.041470706217E-01
H71 -3.189766861672E-01  2.845639350722E-01  4.485950366128E-01
H72  3.189766861672E-01 -2.845639350722E-01 -4.485950366128E-01


#===END

data_OPT_STEP_88

_symmetry_space_group_name_H-M 'P 1'
_cell_length_a      8.20107459
_cell_length_b      6.22797903
_cell_length_c     15.83962984
_cell_angle_alpha   98.879227
_cell_angle_beta  107.010687
_cell_angle_gamma   87.838494

loop_
_atom_site_label
_atom_site_fract_x
_atom_site_fract_y
_atom_site_fract_z
C1  1.307514309585E-01  4.952793922263E-02  4.043442557868E-01
C2 -1.307514309585E-01 -4.952793922263E-02 -4.043442557868E-01
C3 -7.549188245440E-03 -2.496154054662E-01  2.920534475526E-01
C4  7.549188245440E-03  2.496154054662E-01 -2.920534475526E-01
C5  4.941391686555E-02 -1.592405601163E-01  3.793809096469E-01
C6 -4.941391686555E-02  1.592405601163E-01 -3.793809096469E-01
C7  1.528235291399E-01  1.614261050186E-01  3.411743737479E-01
C8 -1.528235291399E-01 -1.614261050186E-01 -3.411743737479E-01
C9  9.564790765715E-02  7.305984285346E-02  2.482370121453E-01
C10 -9.564790765715E-02 -7.305984285346E-02 -2.482370121453E-01
C11  1.171621074824E-01  1.829132281243E-01  1.825796220541E-01
C12 -1.171621074824E-01 -1.829132281243E-01 -1.825796220541E-01
C13  5.985263146757E-02  9.484474625150E-02  9.120043470695E-02
C14 -5.985263146757E-02 -9.484474625150E-02 -9.120043470695E-02
C15  8.090213295521E-02  2.047861765980E-01  2.446594005593E-02
C16 -8.090213295521E-02 -2.047861765980E-01 -2.446594005593E-02
C17 -2.345947599807E-02 -1.166439486647E-01  6.592572066387E-02
C18  2.345947599807E-02  1.166439486647E-01 -6.592572066387E-02
C19 -4.409032436831E-02 -2.268522301186E-01  1.336238696084E-01
C20  4.409032436831E-02  2.268522301186E-01 -1.336238696084E-01
C21  1.289976817199E-02 -1.385337879355E-01  2.229800084539E-01
C22 -1.289976817199E-02  1.385337879355E-01 -2.229800084539E-01
H23  1.749090336647E-01  1.182692614874E-01  4.743887129600E-01
H24 -1.749090336647E-01 -1.182692614874E-01 -4.743887129600E-01
H25 -6.954277663788E-02 -4.076159477385E-01  2.731635812277E-01
H26  6.954277663788E-02  4.076159477385E-01 -2.731635812277E-01
H27  3.285516396520E-02 -2.454101306584E-01  4.308075321153E-01
H28 -3.285516396520E-02  2.454101306584E-01 -4.308075321153E-01
H29  2.133755906744E-01  3.204671290191E-01  3.596263380218E-01
H30 -2.133755906744E-01 -3.204671290191E-01 -3.596263380218E-01
H31  1.792956534903E-01  3.410059834578E-01  2.013903451158E-01
H32 -1.792956534903E-01 -3.410059834578E-01 -2.013903451158E-01
H33  1.430806410328E-01  3.628184623086E-01  4.326233367064E-02
H34 -1.430806410328E-01 -3.628184623086E-01 -4.326233367064E-02
H35 -1.060956510719E-01 -3.849875048784E-01  1.147898835154E-01
H36  1.060956510719E-01  3.849875048784E-01 -1.147898835154E-01
C37 -4.397646248255E-01 -4.248181357567E-01  3.987048520748E-01
C38  4.397646248255E-01  4.248181357567E-01 -3.987048520748E-01
C39 -4.967688357839E-01 -3.181652598809E-01  3.269658333700E-01
C40  4.967688357839E-01  3.181652598809E-01 -3.269658333700E-01
C41 -4.810136332582E-01 -4.124878149954E-01  2.412966826601E-01
C42  4.810136332582E-01  4.124878149954E-01 -2.412966826601E-01
C43  4.626410690324E-01 -3.072930404073E-01  1.672536862117E-01
C44 -4.626410690324E-01  3.072930404073E-01 -1.672536862117E-01
C45  4.798814745019E-01 -4.003523925256E-01  8.324935925838E-02
C46 -4.798814745019E-01  4.003523925256E-01 -8.324935925838E-02
C47  4.240754318324E-01 -2.945257861107E-01  8.273468739025E-03
C48 -4.240754318324E-01  2.945257861107E-01 -8.273468739025E-03
C49 -4.420299692357E-01  3.873654447900E-01  7.468970730052E-02
C50  4.420299692357E-01 -3.873654447900E-01 -7.468970730052E-02
C51 -3.858235680906E-01  2.816875488640E-01  1.507186922625E-01
C52  3.858235680906E-01 -2.816875488640E-01 -1.507186922625E-01
C53 -4.032602159216E-01  3.752019981281E-01  2.327391265422E-01
C54  4.032602159216E-01 -3.752019981281E-01 -2.327391265422E-01
C55 -3.456841512575E-01  2.695457290253E-01  3.103899804446E-01
C56  3.456841512575E-01 -2.695457290253E-01 -3.103899804446E-01
C57 -3.633213030832E-01  3.658623228187E-01  3.902634086767E-01
C58  3.633213030832E-01 -3.658623228187E-01 -3.902634086767E-01
H59 -4.516176920966E-01 -3.508917320064E-01  4.631962630885E-01
H60  4.516176920966E-01  3.508917320064E-01 -4.631962630885E-01
H61  4.454182778705E-01 -1.593502337368E-01  3.334711273375E-01
H62 -4.454182778705E-01  1.593502337368E-01 -3.334711273375E-01
H63  4.044818226593E-01 -1.485947194180E-01  1.737092601106E-01
H64 -4.044818226593E-01  1.485947194180E-01 -1.737092601106E-01
H65  3.658429657381E-01 -1.358775615970E-01  1.471458424482E-02
H66 -3.658429657381E-01  1.358775615970E-01 -1.471458424482E-02
H67 -3.275664053526E-01  1.230116281568E-01  1.443574411672E-01
H68  3.275664053526E-01 -1.230116281568E-01 -1.443574411672E-01
H69 -2.872504891502E-01  1.110908742006E-01  3.040890203854E-01
H70  2.872504891502E-01 -1.110908742006E-01 -3.040890203854E-01
H71 -3.189116734608E-01  2.845834368422E-01  4.485567119704E-01
H72  3.189116734608E-01 -2.845834368422E-01 -4.485567119704E-01


#===END

data_OPT_STEP_89

_symmetry_space_group_name_H-M 'P 1'
_cell_length_a      8.19733439
_cell_length_b      6.22948122
_cell_length_c     15.83888811
_cell_angle_alpha   98.873555
_cell_angle_beta  106.973710
_cell_angle_gamma   87.843838

loop_
_atom_site_label
_atom_site_fract_x
_atom_site_fract_y
_atom_site_fract_z
C1  1.307956904611E-01  4.955850229051E-02  4.043183953686E-01
C2 -1.307956904611E-01 -4.955850229051E-02 -4.043183953686E-01
C3 -7.461446099652E-03 -2.495614010780E-01  2.920914778890E-01
C4  7.461446099652E-03  2.495614010780E-01 -2.920914778890E-01
C5  4.949112382093E-02 -1.591860713625E-01  3.793971284118E-01
C6 -4.949112382093E-02  1.591860713625E-01 -3.793971284118E-01
C7  1.528458519305E-01  1.614352441854E-01  3.411294596274E-01
C8 -1.528458519305E-01 -1.614352441854E-01 -3.411294596274E-01
C9  9.567516811612E-02  7.307084729047E-02  2.482131442025E-01
C10 -9.567516811612E-02 -7.307084729047E-02 -2.482131442025E-01
C11  1.171580043017E-01  1.829066458329E-01  1.825356679861E-01
C12 -1.171580043017E-01 -1.829066458329E-01 -1.825356679861E-01
C13  5.985037575988E-02  9.484119920654E-02  9.117786911750E-02
C14 -5.985037575988E-02 -9.484119920654E-02 -9.117786911750E-02
C15  8.086579672787E-02  2.047661396102E-01  2.442346701757E-02
C16 -8.086579672787E-02 -2.047661396102E-01 -2.442346701757E-02
C17 -2.342444233500E-02 -1.166266998689E-01  6.594671121614E-02
C18  2.342444233500E-02  1.166266998689E-01 -6.594671121614E-02
C19 -4.402326031371E-02 -2.268170921900E-01  1.336645357735E-01
C20  4.402326031371E-02  2.268170921900E-01 -1.336645357735E-01
C21  1.296251782498E-02 -1.385007433543E-01  2.229991271170E-01
C22 -1.296251782498E-02  1.385007433543E-01 -2.229991271170E-01
H23  1.749450498370E-01  1.182981606551E-01  4.743466467883E-01
H24 -1.749450498370E-01 -1.182981606551E-01 -4.743466467883E-01
H25 -6.943107857467E-02 -4.075437699255E-01  2.732337003419E-01
H26  6.943107857467E-02  4.075437699255E-01 -2.732337003419E-01
H27  3.294621435846E-02 -2.453364572788E-01  4.308382455268E-01
H28 -3.294621435846E-02  2.453364572788E-01 -4.308382455268E-01
H29  2.133778233330E-01  3.204543195520E-01  3.595510273178E-01
H30 -2.133778233330E-01 -3.204543195520E-01 -3.595510273178E-01
H31  1.792644166399E-01  3.409834261642E-01  2.013134385621E-01
H32 -1.792644166399E-01 -3.409834261642E-01 -2.013134385621E-01
H33  1.430175121336E-01  3.627822630993E-01  4.318691998495E-02
H34 -1.430175121336E-01 -3.627822630993E-01 -4.318691998495E-02
H35 -1.060033929444E-01 -3.849349542107E-01  1.148631926409E-01
H36  1.060033929444E-01  3.849349542107E-01 -1.148631926409E-01
C37 -4.396744469411E-01 -4.248291972878E-01  3.987082049727E-01
C38  4.396744469411E-01  4.248291972878E-01 -3.987082049727E-01
C39 -4.966794632905E-01 -3.181860499317E-01  3.269855649502E-01
C40  4.966794632905E-01  3.181860499317E-01 -3.269855649502E-01
C41 -4.809522189266E-01 -4.124967228789E-01  2.413054838018E-01
C42  4.809522189266E-01  4.124967228789E-01 -2.413054838018E-01
C43  4.626994734548E-01 -3.073125963079E-01  1.672779712557E-01
C44 -4.626994734548E-01  3.073125963079E-01 -1.672779712557E-01
C45  4.799112808525E-01 -4.003619031044E-01  8.326212319772E-02
C46 -4.799112808525E-01  4.003619031044E-01 -8.326212319772E-02
C47  4.241014325778E-01 -2.945475487143E-01  8.301357083780E-03
C48 -4.241014325778E-01  2.945475487143E-01 -8.301357083780E-03
C49 -4.420273120301E-01  3.873781545159E-01  7.467376184234E-02
C50  4.420273120301E-01 -3.873781545159E-01 -7.467376184234E-02
C51 -3.858173271196E-01  2.817117284701E-01  1.506874487354E-01
C52  3.858173271196E-01 -2.817117284701E-01 -1.506874487354E-01
C53 -4.032265074871E-01  3.752152138437E-01  2.327191912568E-01
C54  4.032265074871E-01 -3.752152138437E-01 -2.327191912568E-01
C55 -3.456468859814E-01  2.695692843622E-01  3.103542086808E-01
C56  3.456468859814E-01 -2.695692843622E-01 -3.103542086808E-01
C57 -3.632560775776E-01  3.658751472140E-01  3.902388821663E-01
C58  3.632560775776E-01 -3.658751472140E-01 -3.902388821663E-01
H59 -4.515134977957E-01 -3.509182296170E-01  4.632067920512E-01
H60  4.515134977957E-01  3.509182296170E-01 -4.632067920512E-01
H61  4.455237678933E-01 -1.593905702914E-01  3.335117456802E-01
H62 -4.455237678933E-01  1.593905702914E-01 -3.335117456802E-01
H63  4.045581250625E-01 -1.486323941781E-01  1.737546520249E-01
H64 -4.045581250625E-01  1.486323941781E-01 -1.737546520249E-01
H65  3.658873851082E-01 -1.359171328829E-01  1.476359515892E-02
H66 -3.658873851082E-01  1.359171328829E-01 -1.476359515892E-02
H67 -3.275786066215E-01  1.230539059881E-01  1.443051387107E-01
H68  3.275786066215E-01 -1.230539059881E-01 -1.443051387107E-01
H69 -2.872321847137E-01  1.111318033274E-01  3.040326195812E-01
H70  2.872321847137E-01 -1.111318033274E-01 -3.040326195812E-01
H71 -3.188456637519E-01  2.846039949308E-01  4.485197334497E-01
H72  3.188456637519E-01 -2.846039949308E-01 -4.485197334497E-01


#===END

data_OPT_STEP_90

_symmetry_space_group_name_H-M 'P 1'
_cell_length_a      8.19365623
_cell_length_b      6.23093717
_cell_length_c     15.83812258
_cell_angle_alpha   98.867353
_cell_angle_beta  106.936311
_cell_angle_gamma   87.849439

loop_
_atom_site_label
_atom_site_fract_x
_atom_site_fract_y
_atom_site_fract_z
C1  1.308399814084E-01  4.958924402428E-02  4.042924139070E-01
C2 -1.308399814084E-01 -4.958924402428E-02 -4.042924139070E-01
C3 -7.372693816617E-03 -2.495075122281E-01  2.921310188434E-01
C4  7.372693816617E-03  2.495075122281E-01 -2.921310188434E-01
C5  4.956843151720E-02 -1.591320116532E-01  3.794140745880E-01
C6 -4.956843151720E-02  1.591320116532E-01 -3.794140745880E-01
C7  1.528690619259E-01  1.614456617095E-01  3.410842548064E-01
C8 -1.528690619259E-01 -1.614456617095E-01 -3.410842548064E-01
C9  9.570397361845E-02  7.308300591322E-02  2.481894426467E-01
C10 -9.570397361845E-02 -7.308300591322E-02 -2.481894426467E-01
C11  1.171561709389E-01  1.829009751556E-01  1.824914297278E-01
C12 -1.171561709389E-01 -1.829009751556E-01 -1.824914297278E-01
C13  5.984913204781E-02  9.483811045664E-02  9.115509879531E-02
C14 -5.984913204781E-02 -9.483811045664E-02 -9.115509879531E-02
C15  8.082992936028E-02  2.047466313247E-01  2.437986461937E-02
C16 -8.082992936028E-02 -2.047466313247E-01 -2.437986461937E-02
C17 -2.338906876917E-02 -1.166095534173E-01  6.596850269922E-02
C18  2.338906876917E-02  1.166095534173E-01 -6.596850269922E-02
C19 -4.395580149137E-02 -2.267820437791E-01  1.337065400014E-01
C20  4.395580149137E-02  2.267820437791E-01 -1.337065400014E-01
C21  1.302622894838E-02 -1.384670865236E-01  2.230193429858E-01
C22 -1.302622894838E-02  1.384670865236E-01 -2.230193429858E-01
H23  1.749789295713E-01  1.183271407861E-01  4.743038173707E-01
H24 -1.749789295713E-01 -1.183271407861E-01 -4.743038173707E-01
H25 -6.931777050365E-02 -4.074725121752E-01  2.733061914204E-01
H26  6.931777050365E-02  4.074725121752E-01 -2.733061914204E-01
H27  3.303721086026E-02 -2.452635973785E-01  4.308700202456E-01
H28 -3.303721086026E-02  2.452635973785E-01 -4.308700202456E-01
H29  2.133804989840E-01  3.204445896931E-01  3.594750441613E-01
H30 -2.133804989840E-01 -3.204445896931E-01 -3.594750441613E-01
H31  1.792360768759E-01  3.409620027033E-01  2.012355449428E-01
H32 -1.792360768759E-01 -3.409620027033E-01 -2.012355449428E-01
H33  1.429548537870E-01  3.627472048044E-01  4.310948719177E-02
H34 -1.429548537870E-01 -3.627472048044E-01 -4.310948719177E-02
H35 -1.059107568299E-01 -3.848832395534E-01  1.149386121796E-01
H36  1.059107568299E-01  3.848832395534E-01 -1.149386121796E-01
C37 -4.395838579080E-01 -4.248405108571E-01  3.987113865626E-01
C38  4.395838579080E-01  4.248405108571E-01 -3.987113865626E-01
C39 -4.965904870935E-01 -3.182071030301E-01  3.270046417682E-01
C40  4.965904870935E-01  3.182071030301E-01 -3.270046417682E-01
C41 -4.808908826260E-01 -4.125061657523E-01  2.413139278563E-01
C42  4.808908826260E-01  4.125061657523E-01 -2.413139278563E-01
C43  4.627577176845E-01 -3.073326858584E-01  1.673017983198E-01
C44 -4.627577176845E-01  3.073326858584E-01 -1.673017983198E-01
C45  4.799403250956E-01 -4.003723025207E-01  8.327439507310E-02
C46 -4.799403250956E-01  4.003723025207E-01 -8.327439507310E-02
C47  4.241261605050E-01 -2.945696585929E-01  8.328449348837E-03
C48 -4.241261605050E-01  2.945696585929E-01 -8.328449348837E-03
C49 -4.420238467963E-01  3.873903798147E-01  7.465815947331E-02
C50  4.420238467963E-01 -3.873903798147E-01 -7.465815947331E-02
C51 -3.858100514455E-01  2.817350479127E-01  1.506567182967E-01
C52  3.858100514455E-01 -2.817350479127E-01 -1.506567182967E-01
C53 -4.031918213967E-01  3.752278641443E-01  2.326996331349E-01
C54  4.031918213967E-01 -3.752278641443E-01 -2.326996331349E-01
C55 -3.456087087078E-01  2.695918807091E-01  3.103190490106E-01
C56  3.456087087078E-01 -2.695918807091E-01 -3.103190490106E-01
C57 -3.631898786155E-01  3.658872310093E-01  3.902148190813E-01
C58  3.631898786155E-01 -3.658872310093E-01 -3.902148190813E-01
H59 -4.514078032729E-01 -3.509441258003E-01  4.632174514248E-01
H60  4.514078032729E-01  3.509441258003E-01 -4.632174514248E-01
H61  4.456282285948E-01 -1.594310739695E-01  3.335510985190E-01
H62 -4.456282285948E-01  1.594310739695E-01 -3.335510985190E-01
H63  4.046345466334E-01 -1.486703163848E-01  1.737994031386E-01
H64 -4.046345466334E-01  1.486703163848E-01 -1.737994031386E-01
H65  3.659303469647E-01 -1.359571369357E-01  1.481140251260E-02
H66 -3.659303469647E-01  1.359571369357E-01 -1.481140251260E-02
H67 -3.275904546501E-01  1.230944698976E-01  1.442535131468E-01
H68  3.275904546501E-01 -1.230944698976E-01 -1.442535131468E-01
H69 -2.872125665464E-01  1.111716507718E-01  3.039773168082E-01
H70  2.872125665464E-01 -1.111716507718E-01 -3.039773168082E-01
H71 -3.187777226975E-01  2.846238426920E-01  4.484836229595E-01
H72  3.187777226975E-01 -2.846238426920E-01 -4.484836229595E-01


#===END

data_OPT_STEP_91

_symmetry_space_group_name_H-M 'P 1'
_cell_length_a      8.19004551
_cell_length_b      6.23234592
_cell_length_c     15.83732394
_cell_angle_alpha   98.860750
_cell_angle_beta  106.898450
_cell_angle_gamma   87.855243

loop_
_atom_site_label
_atom_site_fract_x
_atom_site_fract_y
_atom_site_fract_z
C1  1.308859096274E-01  4.961941680122E-02  4.042668770713E-01
C2 -1.308859096274E-01 -4.961941680122E-02 -4.042668770713E-01
C3 -7.284597365460E-03 -2.494553230363E-01  2.921719212299E-01
C4  7.284597365460E-03  2.494553230363E-01 -2.921719212299E-01
C5  4.964633644387E-02 -1.590789935353E-01  3.794324378966E-01
C6 -4.964633644387E-02  1.590789935353E-01 -3.794324378966E-01
C7  1.528935713454E-01  1.614552443318E-01  3.410386069267E-01
C8 -1.528935713454E-01 -1.614552443318E-01 -3.410386069267E-01
C9  9.573274256734E-02  7.309421873571E-02  2.481654547692E-01
C10 -9.573274256734E-02 -7.309421873571E-02 -2.481654547692E-01
C11  1.171536582144E-01  1.828953783009E-01  1.824462154167E-01
C12 -1.171536582144E-01 -1.828953783009E-01 -1.824462154167E-01
C13  5.984765405230E-02  9.483510649173E-02  9.113185184045E-02
C14 -5.984765405230E-02 -9.483510649173E-02 -9.113185184045E-02
C15  8.079433708167E-02  2.047278376236E-01  2.433552167271E-02
C16 -8.079433708167E-02 -2.047278376236E-01 -2.433552167271E-02
C17 -2.335397485507E-02 -1.165930878329E-01  6.599074603025E-02
C18  2.335397485507E-02  1.165930878329E-01 -6.599074603025E-02
C19 -4.388874498272E-02 -2.267483553301E-01  1.337496301950E-01
C20  4.388874498272E-02  2.267483553301E-01 -1.337496301950E-01
C21  1.308957872540E-02 -1.384350295842E-01  2.230402423517E-01
C22 -1.308957872540E-02  1.384350295842E-01 -2.230402423517E-01
H23  1.750167217522E-01  1.183558740993E-01  4.742615603402E-01
H24 -1.750167217522E-01 -1.183558740993E-01 -4.742615603402E-01
H25 -6.920617656798E-02 -4.074031229558E-01  2.733806097713E-01
H26  6.920617656798E-02  4.074031229558E-01 -2.733806097713E-01
H27  3.312879368650E-02 -2.451920192751E-01  4.309037513294E-01
H28 -3.312879368650E-02  2.451920192751E-01 -4.309037513294E-01
H29  2.133858242496E-01  3.204330356061E-01  3.593976828420E-01
H30 -2.133858242496E-01 -3.204330356061E-01 -3.593976828420E-01
H31  1.792070359664E-01  3.409413271073E-01  2.011559332305E-01
H32 -1.792070359664E-01 -3.409413271073E-01 -2.011559332305E-01
H33  1.428927970916E-01  3.627133412410E-01  4.303072198224E-02
H34 -1.428927970916E-01 -3.627133412410E-01 -4.303072198224E-02
H35 -1.058189457603E-01 -3.848331503163E-01  1.150158046383E-01
H36  1.058189457603E-01  3.848331503163E-01 -1.150158046383E-01
C37 -4.394923829935E-01 -4.248498221838E-01  3.987154112965E-01
C38  4.394923829935E-01  4.248498221838E-01 -3.987154112965E-01
C39 -4.965008029013E-01 -3.182260179420E-01  3.270242658640E-01
C40  4.965008029013E-01  3.182260179420E-01 -3.270242658640E-01
C41 -4.808287874294E-01 -4.125139323653E-01  2.413229416774E-01
C42  4.808287874294E-01  4.125139323653E-01 -2.413229416774E-01
C43  4.628159414962E-01 -3.073509921919E-01  1.673256142273E-01
C44 -4.628159414962E-01  3.073509921919E-01 -1.673256142273E-01
C45  4.799699868478E-01 -4.003812736907E-01  8.328686494169E-02
C46 -4.799699868478E-01  4.003812736907E-01 -8.328686494169E-02
C47  4.241510249839E-01 -2.945906628273E-01  8.355308454098E-03
C48 -4.241510249839E-01  2.945906628273E-01 -8.355308454098E-03
C49 -4.420200191309E-01  3.874028704772E-01  7.464300865592E-02
C50  4.420200191309E-01 -3.874028704772E-01 -7.464300865592E-02
C51 -3.858017289571E-01  2.817588337864E-01  1.506269964168E-01
C52  3.858017289571E-01 -2.817588337864E-01 -1.506269964168E-01
C53 -4.031560672861E-01  3.752414734557E-01  2.326810194204E-01
C54  4.031560672861E-01 -3.752414734557E-01 -2.326810194204E-01
C55 -3.455685296808E-01  2.696156499288E-01  3.102853275735E-01
C56  3.455685296808E-01 -2.696156499288E-01 -3.102853275735E-01
C57 -3.631220389101E-01  3.659008770457E-01  3.901920466442E-01
C58  3.631220389101E-01 -3.659008770457E-01 -3.901920466442E-01
H59 -4.513025292218E-01 -3.509683368249E-01  4.632284273947E-01
H60  4.513025292218E-01  3.509683368249E-01 -4.632284273947E-01
H61  4.457330178406E-01 -1.594690099230E-01  3.335907045052E-01
H62 -4.457330178406E-01  1.594690099230E-01 -3.335907045052E-01
H63  4.047098933452E-01 -1.487061838094E-01  1.738435675250E-01
H64 -4.047098933452E-01  1.487061838094E-01 -1.738435675250E-01
H65  3.659728024539E-01 -1.359954116939E-01  1.485862302111E-02
H66 -3.659728024539E-01  1.359954116939E-01 -1.485862302111E-02
H67 -3.275999582080E-01  1.231355644393E-01  1.442034460357E-01
H68  3.275999582080E-01 -1.231355644393E-01 -1.442034460357E-01
H69 -2.871904316022E-01  1.112122609076E-01  3.039237546708E-01
H70  2.871904316022E-01 -1.112122609076E-01 -3.039237546708E-01
H71 -3.187085512021E-01  2.846449867220E-01  4.484489626632E-01
H72  3.187085512021E-01 -2.846449867220E-01 -4.484489626632E-01


#===END

data_OPT_STEP_92

_symmetry_space_group_name_H-M 'P 1'
_cell_length_a      8.18649224
_cell_length_b      6.23371171
_cell_length_c     15.83650185
_cell_angle_alpha   98.853680
_cell_angle_beta  106.860244
_cell_angle_gamma   87.861270

loop_
_atom_site_label
_atom_site_fract_x
_atom_site_fract_y
_atom_site_fract_z
C1  1.309317791563E-01  4.965003248516E-02  4.042412701524E-01
C2 -1.309317791563E-01 -4.965003248516E-02 -4.042412701524E-01
C3 -7.195990263318E-03 -2.494032294678E-01  2.922140848718E-01
C4  7.195990263318E-03  2.494032294678E-01 -2.922140848718E-01
C5  4.972421745882E-02 -1.590261663807E-01  3.794514870177E-01
C6 -4.972421745882E-02  1.590261663807E-01 -3.794514870177E-01
C7  1.529187284549E-01  1.614659543770E-01  3.409926540444E-01
C8 -1.529187284549E-01 -1.614659543770E-01 -3.409926540444E-01
C9  9.576268169434E-02  7.310625511180E-02  2.481415476832E-01
C10 -9.576268169434E-02 -7.310625511180E-02 -2.481415476832E-01
C11  1.171529981227E-01  1.828903451988E-01  1.824006819883E-01
C12 -1.171529981227E-01 -1.828903451988E-01 -1.824006819883E-01
C13  5.984697822087E-02  9.483236749973E-02  9.110840366017E-02
C14 -5.984697822087E-02 -9.483236749973E-02 -9.110840366017E-02
C15  8.075911946617E-02  2.047094672857E-01  2.429023585162E-02
C16 -8.075911946617E-02 -2.047094672857E-01 -2.429023585162E-02
C17 -2.331876343568E-02 -1.165767075970E-01  6.601361660962E-02
C18  2.331876343568E-02  1.165767075970E-01 -6.601361660962E-02
C19 -4.382159238670E-02 -2.267148936534E-01  1.337937646720E-01
C20  4.382159238670E-02  2.267148936534E-01 -1.337937646720E-01
C21  1.315345533965E-02 -1.384025720107E-01  2.230619806193E-01
C22 -1.315345533965E-02  1.384025720107E-01 -2.230619806193E-01
H23  1.750529550890E-01  1.183850652482E-01  4.742187244165E-01
H24 -1.750529550890E-01 -1.183850652482E-01 -4.742187244165E-01
H25 -6.909366412776E-02 -4.073345832293E-01  2.734570446149E-01
H26  6.909366412776E-02  4.073345832293E-01 -2.734570446149E-01
H27  3.322028510731E-02 -2.451209499493E-01  4.309384998801E-01
H28 -3.322028510731E-02  2.451209499493E-01 -4.309384998801E-01
H29  2.133914070996E-01  3.204242781713E-01  3.593196696496E-01
H30 -2.133914070996E-01 -3.204242781713E-01 -3.593196696496E-01
H31  1.791804225857E-01  3.409214951856E-01  2.010754192191E-01
H32 -1.791804225857E-01 -3.409214951856E-01 -2.010754192191E-01
H33  1.428313364460E-01  3.626803556631E-01  4.295029570697E-02
H34 -1.428313364460E-01 -3.626803556631E-01 -4.295029570697E-02
H35 -1.057271503284E-01 -3.847839240330E-01  1.150946648395E-01
H36  1.057271503284E-01  3.847839240330E-01 -1.150946648395E-01
C37 -4.394006426160E-01 -4.248596282582E-01  3.987191579638E-01
C38  4.394006426160E-01  4.248596282582E-01 -3.987191579638E-01
C39 -4.964115224002E-01 -3.182454533434E-01  3.270432147678E-01
C40  4.964115224002E-01  3.182454533434E-01 -3.270432147678E-01
C41 -4.807670347676E-01 -4.125224073505E-01  2.413315121170E-01
C42  4.807670347676E-01  4.125224073505E-01 -2.413315121170E-01
C43  4.628735870433E-01 -3.073698719477E-01  1.673487818664E-01
C44 -4.628735870433E-01  3.073698719477E-01 -1.673487818664E-01
C45  4.799988968890E-01 -4.003909468412E-01  8.329885400412E-02
C46 -4.799988968890E-01  4.003909468412E-01 -8.329885400412E-02
C47  4.241747452716E-01 -2.946119212459E-01  8.381415903033E-03
C48 -4.241747452716E-01  2.946119212459E-01 -8.381415903033E-03
C49 -4.420157038617E-01  3.874149729434E-01  7.462815657361E-02
C50  4.420157038617E-01 -3.874149729434E-01 -7.462815657361E-02
C51 -3.857925479687E-01  2.817820008521E-01  1.505977776184E-01
C52  3.857925479687E-01 -2.817820008521E-01 -1.505977776184E-01
C53 -4.031197730945E-01  3.752544268095E-01  2.326626372395E-01
C54  4.031197730945E-01 -3.752544268095E-01 -2.326626372395E-01
C55 -3.455276997359E-01  2.696385451434E-01  3.102520919104E-01
C56  3.455276997359E-01 -2.696385451434E-01 -3.102520919104E-01
C57 -3.630536808362E-01  3.659137956994E-01  3.901695645617E-01
C58  3.630536808362E-01 -3.659137956994E-01 -3.901695645617E-01
H59 -4.511957900619E-01 -3.509922906429E-01  4.632394348122E-01
H60  4.511957900619E-01  3.509922906429E-01 -4.632394348122E-01
H61  4.458371030665E-01 -1.595071541010E-01  3.336291902439E-01
H62 -4.458371030665E-01  1.595071541010E-01 -3.336291902439E-01
H63  4.047847419021E-01 -1.487422330930E-01  1.738868075266E-01
H64 -4.047847419021E-01  1.487422330930E-01 -1.738868075266E-01
H65  3.660140273949E-01 -1.360337713278E-01  1.490468660919E-02
H66 -3.660140273949E-01  1.360337713278E-01 -1.490468660919E-02
H67 -3.276088942101E-01  1.231754650907E-01  1.441541792676E-01
H68  3.276088942101E-01 -1.231754650907E-01 -1.441541792676E-01
H69 -2.871673802909E-01  1.112517244882E-01  3.038711257535E-01
H70  2.871673802910E-01 -1.112517244882E-01 -3.038711257535E-01
H71 -3.186381545144E-01  2.846654866668E-01  4.484149440293E-01
H72  3.186381545144E-01 -2.846654866668E-01 -4.484149440293E-01


#===END

data_OPT_STEP_93

_symmetry_space_group_name_H-M 'P 1'
_cell_length_a      8.18300346
_cell_length_b      6.23503277
_cell_length_c     15.83565627
_cell_angle_alpha   98.846244
_cell_angle_beta  106.821651
_cell_angle_gamma   87.867481

loop_
_atom_site_label
_atom_site_fract_x
_atom_site_fract_y
_atom_site_fract_z
C1  1.309789422838E-01  4.967984354011E-02  4.042159774449E-01
C2 -1.309789422838E-01 -4.967984354011E-02 -4.042159774449E-01
C3 -7.107845979583E-03 -2.493528381057E-01  2.922574555475E-01
C4  7.107845979583E-03  2.493528381057E-01 -2.922574555475E-01
C5  4.980247238344E-02 -1.589746341259E-01  3.794716911206E-01
C6 -4.980247238344E-02  1.589746341259E-01 -3.794716911206E-01
C7  1.529450456405E-01  1.614758597706E-01  3.409463141842E-01
C8 -1.529450456405E-01 -1.614758597706E-01 -3.409463141842E-01
C9  9.579273425228E-02  7.311754550924E-02  2.481174482621E-01
C10 -9.579273425228E-02 -7.311754550924E-02 -2.481174482621E-01
C11  1.171520843941E-01  1.828854132641E-01  1.823544039311E-01
C12 -1.171520843941E-01 -1.828854132641E-01 -1.823544039311E-01
C13  5.984630148327E-02  9.482969954360E-02  9.108461048826E-02
C14 -5.984630148327E-02 -9.482969954360E-02 -9.108461048826E-02
C15  8.072431039014E-02  2.046918169558E-01  2.424428258915E-02
C16 -8.072431039014E-02 -2.046918169558E-01 -2.424428258915E-02
C17 -2.328373447435E-02 -1.165610647377E-01  6.603692620440E-02
C18  2.328373447435E-02  1.165610647377E-01 -6.603692620440E-02
C19 -4.375479378926E-02 -2.266827137368E-01  1.338388856269E-01
C20  4.375479378926E-02  2.266827137368E-01 -1.338388856269E-01
C21  1.321713134379E-02 -1.383715445536E-01  2.230843740094E-01
C22 -1.321713134379E-02  1.383715445536E-01 -2.230843740094E-01
H23  1.750919447646E-01  1.184136633372E-01  4.741762104861E-01
H24 -1.750919447646E-01 -1.184136633372E-01 -4.741762104861E-01
H25 -6.898252129356E-02 -4.072678886458E-01  2.735351900148E-01
H26  6.898252129356E-02  4.072678886458E-01 -2.735351900148E-01
H27  3.331194925149E-02 -2.450513888920E-01  4.309748132183E-01
H28 -3.331194925149E-02  2.450513888920E-01 -4.309748132183E-01
H29  2.133993414247E-01  3.204139853066E-01  3.592405051770E-01
H30 -2.133993414247E-01 -3.204139853066E-01 -3.592405051770E-01
H31  1.791536430167E-01  3.409023590432E-01  2.009935211424E-01
H32 -1.791536430167E-01 -3.409023590432E-01 -2.009935211424E-01
H33  1.427705014286E-01  3.626486030559E-01  4.286867192063E-02
H34 -1.427705014286E-01 -3.626486030559E-01 -4.286867192063E-02
H35 -1.056361072624E-01 -3.847363158338E-01  1.151751123238E-01
H36  1.056361072624E-01  3.847363158338E-01 -1.151751123238E-01
C37 -4.393083105463E-01 -4.248669520517E-01  3.987236783465E-01
C38  4.393083105463E-01  4.248669520517E-01 -3.987236783465E-01
C39 -4.963216715410E-01 -3.182622921633E-01  3.270626274831E-01
C40  4.963216715410E-01  3.182622921633E-01 -3.270626274831E-01
C41 -4.807043495948E-01 -4.125288573490E-01  2.413406712880E-01
C42  4.807043495948E-01  4.125288573490E-01 -2.413406712880E-01
C43  4.629318069014E-01 -3.073868473418E-01  1.673721120695E-01
C44 -4.629318069014E-01  3.073868473418E-01 -1.673721120695E-01
C45  4.800284382232E-01 -4.003993700061E-01  8.331102918906E-02
C46 -4.800284382232E-01  4.003993700061E-01 -8.331102918906E-02
C47  4.241985504022E-01 -2.946321257076E-01  8.407280384580E-03
C48 -4.241985504022E-01  2.946321257076E-01 -8.407280384580E-03
C49 -4.420108681137E-01  3.874272190824E-01  7.461373428361E-02
C50  4.420108681137E-01 -3.874272190824E-01 -7.461373428361E-02
C51 -3.857823803746E-01  2.818053798051E-01  1.505694620030E-01
C52  3.857823803746E-01 -2.818053798051E-01 -1.505694620030E-01
C53 -4.030822398196E-01  3.752685350236E-01  2.326452167114E-01
C54  4.030822398196E-01 -3.752685350236E-01 -2.326452167114E-01
C55 -3.454850475399E-01  2.696627008530E-01  3.102202522881E-01
C56  3.454850475399E-01 -2.696627008530E-01 -3.102202522881E-01
C57 -3.629837726639E-01  3.659285000428E-01  3.901483609828E-01
C58  3.629837726639E-01 -3.659285000428E-01 -3.901483609828E-01
H59 -4.510898385288E-01 -3.510139736048E-01  4.632507462136E-01
H60  4.510898385288E-01  3.510139736048E-01 -4.632507462136E-01
H61  4.459412275668E-01 -1.595423793516E-01  3.336677444403E-01
H62 -4.459412275668E-01  1.595423793516E-01 -3.336677444403E-01
H63  4.048594839286E-01 -1.487761217207E-01  1.739297710610E-01
H64 -4.048594839286E-01  1.487761217207E-01 -1.739297710610E-01
H65  3.660547803607E-01 -1.360706380311E-01  1.495016543488E-02
H66 -3.660547803607E-01  1.360706380311E-01 -1.495016543488E-02
H67 -3.276160280704E-01  1.232153528848E-01  1.441062191502E-01
H68  3.276160280704E-01 -1.232153528848E-01 -1.441062191502E-01
H69 -2.871419354742E-01  1.112921407343E-01  3.038202312734E-01
H70  2.871419354742E-01 -1.112921407343E-01 -3.038202312734E-01
H71 -3.185664338488E-01  2.846875972297E-01  4.483823939328E-01
H72  3.185664338488E-01 -2.846875972297E-01 -4.483823939328E-01


#===END

data_OPT_STEP_94

_symmetry_space_group_name_H-M 'P 1'
_cell_length_a      8.17955125
_cell_length_b      6.23632956
_cell_length_c     15.83478800
_cell_angle_alpha   98.838468
_cell_angle_beta  106.782885
_cell_angle_gamma   87.873810

loop_
_atom_site_label
_atom_site_fract_x
_atom_site_fract_y
_atom_site_fract_z
C1  1.310259517064E-01  4.970944950193E-02  4.041904814483E-01
C2 -1.310259517064E-01 -4.970944950193E-02 -4.041904814483E-01
C3 -7.020063106649E-03 -2.493025152939E-01  2.923012551907E-01
C4  7.020063106649E-03  2.493025152939E-01 -2.923012551907E-01
C5  4.988021457262E-02 -1.589233930225E-01  3.794920256186E-01
C6 -4.988021457262E-02  1.589233930225E-01 -3.794920256186E-01
C7  1.529718331915E-01  1.614858198428E-01  3.408996898910E-01
C8 -1.529718331915E-01 -1.614858198428E-01 -3.408996898910E-01
C9  9.582333906389E-02  7.312894991186E-02  2.480932386141E-01
C10 -9.582333906389E-02 -7.312894991186E-02 -2.480932386141E-01
C11  1.171520568071E-01  1.828806071905E-01  1.823078451903E-01
C12 -1.171520568071E-01 -1.828806071905E-01 -1.823078451903E-01
C13  5.984588334664E-02  9.482717354094E-02  9.106059755622E-02
C14 -5.984588334664E-02 -9.482717354094E-02 -9.106059755622E-02
C15  8.068980705621E-02  2.046743130744E-01  2.419788700683E-02
C16 -8.068980705621E-02 -2.046743130744E-01 -2.419788700683E-02
C17 -2.324884863980E-02 -1.165454284823E-01  6.606048078335E-02
C18  2.324884863980E-02  1.165454284823E-01 -6.606048078335E-02
C19 -4.368825159931E-02 -2.266506395776E-01  1.338844199116E-01
C20  4.368825159931E-02  2.266506395776E-01 -1.338844199116E-01
C21  1.328072670012E-02 -1.383404143855E-01  2.231070416176E-01
C22 -1.328072670012E-02  1.383404143855E-01 -2.231070416176E-01
H23  1.751303599093E-01  1.184419580736E-01  4.741332980627E-01
H24 -1.751303599093E-01 -1.184419580736E-01 -4.741332980627E-01
H25 -6.887140218157E-02 -4.072017481152E-01  2.736142027866E-01
H26  6.887140218157E-02  4.072017481152E-01 -2.736142027866E-01
H27  3.340295499851E-02 -2.449824178007E-01  4.310113868224E-01
H28 -3.340295499851E-02  2.449824178007E-01 -4.310113868224E-01
H29  2.134081696644E-01  3.204041721221E-01  3.591609434730E-01
H30 -2.134081696644E-01 -3.204041721221E-01 -3.591609434730E-01
H31  1.791283072503E-01  3.408832973567E-01  2.009110806960E-01
H32 -1.791283072503E-01 -3.408832973567E-01 -2.009110806960E-01
H33  1.427100794573E-01  3.626172292857E-01  4.278626969212E-02
H34 -1.427100794573E-01 -3.626172292857E-01 -4.278626969212E-02
H35 -1.055453307969E-01 -3.846891117051E-01  1.152563336870E-01
H36  1.055453307969E-01  3.846891117051E-01 -1.152563336870E-01
C37 -4.392155721514E-01 -4.248766838764E-01  3.987276520120E-01
C38  4.392155721514E-01  4.248766838764E-01 -3.987276520120E-01
C39 -4.962319142199E-01 -3.182809210496E-01  3.270813821460E-01
C40  4.962319142199E-01  3.182809210496E-01 -3.270813821460E-01
C41 -4.806422685255E-01 -4.125368254785E-01  2.413492444997E-01
C42  4.806422685255E-01  4.125368254785E-01 -2.413492444997E-01
C43  4.629890673992E-01 -3.074048668947E-01  1.673946717508E-01
C44 -4.629890673992E-01  3.074048668947E-01 -1.673946717508E-01
C45  4.800572553952E-01 -4.004084433002E-01  8.332275456837E-02
C46 -4.800572553952E-01  4.004084433002E-01 -8.332275456837E-02
C47  4.242215780071E-01 -2.946525905558E-01  8.432558434032E-03
C48 -4.242215780071E-01  2.946525905558E-01 -8.432558434032E-03
C49 -4.420058786490E-01  3.874391525471E-01  7.459948077027E-02
C50  4.420058786490E-01 -3.874391525471E-01 -7.459948077027E-02
C51 -3.857716899774E-01  2.818281454390E-01  1.505414208580E-01
C52  3.857716899774E-01 -2.818281454390E-01 -1.505414208580E-01
C53 -4.030446617049E-01  3.752813413585E-01  2.326277045192E-01
C54  4.030446617049E-01 -3.752813413585E-01 -2.326277045192E-01
C55 -3.454421509263E-01  2.696849708648E-01  3.101883564776E-01
C56  3.454421509263E-01 -2.696849708648E-01 -3.101883564776E-01
C57 -3.629137648333E-01  3.659407195671E-01  3.901268622011E-01
C58  3.629137648333E-01 -3.659407195671E-01 -3.901268622011E-01
H59 -4.509818505782E-01 -3.510385752018E-01  4.632618445205E-01
H60  4.509818505782E-01  3.510385752018E-01 -4.632618445205E-01
H61  4.460453645946E-01 -1.595790965714E-01  3.337054661920E-01
H62 -4.460453645946E-01  1.595790965714E-01 -3.337054661920E-01
H63  4.049331820132E-01 -1.488108051602E-01  1.739716809549E-01
H64 -4.049331820132E-01  1.488108051602E-01 -1.739716809549E-01
H65  3.660946888547E-01 -1.361075300081E-01  1.499471278514E-02
H66 -3.660946888547E-01  1.361075300081E-01 -1.499471278514E-02
H67 -3.276227079139E-01  1.232544101859E-01  1.440588433777E-01
H68  3.276227079139E-01 -1.232544101859E-01 -1.440588433777E-01
H69 -2.871162872709E-01  1.113304874024E-01  3.037695084042E-01
H70  2.871162872709E-01 -1.113304874024E-01 -3.037695084042E-01
H71 -3.184946290120E-01  2.847066059589E-01  4.483496112996E-01
H72  3.184946290120E-01 -2.847066059589E-01 -4.483496112996E-01


#===END

data_OPT_STEP_95

_symmetry_space_group_name_H-M 'P 1'
_cell_length_a      8.17614333
_cell_length_b      6.23759620
_cell_length_c     15.83391098
_cell_angle_alpha   98.830459
_cell_angle_beta  106.743905
_cell_angle_gamma   87.880230

loop_
_atom_site_label
_atom_site_fract_x
_atom_site_fract_y
_atom_site_fract_z
C1  1.310740197954E-01  4.973776180905E-02  4.041650862069E-01
C2 -1.310740197954E-01 -4.973776180905E-02 -4.041650862069E-01
C3 -6.932231727989E-03 -2.492535843537E-01  2.923457280929E-01
C4  6.932231727989E-03  2.492535843537E-01 -2.923457280929E-01
C5  4.995837559222E-02 -1.588736362250E-01  3.795129134153E-01
C6 -4.995837559222E-02  1.588736362250E-01 -3.795129134153E-01
C7  1.529998101303E-01  1.614947620591E-01  3.408528598710E-01
C8 -1.529998101303E-01 -1.614947620591E-01 -3.408528598710E-01
C9  9.585451524158E-02  7.313964198829E-02  2.480689632937E-01
C10 -9.585451524158E-02 -7.313964198829E-02 -2.480689632937E-01
C11  1.171525380441E-01  1.828755406629E-01  1.822609739591E-01
C12 -1.171525380441E-01 -1.828755406629E-01 -1.822609739591E-01
C13  5.984583575947E-02  9.482450475848E-02  9.103645069963E-02
C14 -5.984583575947E-02 -9.482450475848E-02 -9.103645069963E-02
C15  8.065549935998E-02  2.046572168551E-01  2.415103824013E-02
C16 -8.065549935998E-02 -2.046572168551E-01 -2.415103824013E-02
C17 -2.321385946097E-02 -1.165303945262E-01  6.608433896631E-02
C18  2.321385946097E-02  1.165303945262E-01 -6.608433896631E-02
C19 -4.362172437661E-02 -2.266195386659E-01  1.339305157541E-01
C20  4.362172437661E-02  2.266195386659E-01 -1.339305157541E-01
C21  1.334448701755E-02 -1.383103524183E-01  2.231300952167E-01
C22 -1.334448701755E-02  1.383103524183E-01 -2.231300952167E-01
H23  1.751703378404E-01  1.184687626490E-01  4.740903709504E-01
H24 -1.751703378404E-01 -1.184687626490E-01 -4.740903709504E-01
H25 -6.876072448082E-02 -4.071371397416E-01  2.736941939818E-01
H26  6.876072448082E-02  4.071371397416E-01 -2.736941939818E-01
H27  3.349393865259E-02 -2.449151304802E-01  4.310486606542E-01
H28 -3.349393865259E-02  2.449151304802E-01 -4.310486606541E-01
H29  2.134191424320E-01  3.203930647241E-01  3.590808903481E-01
H30 -2.134191424320E-01 -3.203930647241E-01 -3.590808903481E-01
H31  1.791035668843E-01  3.408643522125E-01  2.008279862513E-01
H32 -1.791035668843E-01 -3.408643522125E-01 -2.008279862513E-01
H33  1.426498572216E-01  3.625866976253E-01  4.270306194562E-02
H34 -1.426498572216E-01 -3.625866976253E-01 -4.270306194562E-02
H35 -1.054548088992E-01 -3.846431804883E-01  1.153384332200E-01
H36  1.054548088992E-01  3.846431804883E-01 -1.153384332200E-01
C37 -4.391218273335E-01 -4.248857623885E-01  3.987320035745E-01
C38  4.391218273335E-01  4.248857623885E-01 -3.987320035745E-01
C39 -4.961412320347E-01 -3.182985040121E-01  3.271004032971E-01
C40  4.961412320347E-01  3.182985040121E-01 -3.271004032971E-01
C41 -4.805791115362E-01 -4.125439503342E-01  2.413581571785E-01
C42  4.805791115362E-01  4.125439503342E-01 -2.413581571785E-01
C43  4.630473253201E-01 -3.074218066272E-01  1.674174401814E-01
C44 -4.630473253201E-01  3.074218066272E-01 -1.674174401814E-01
C45  4.800866637653E-01 -4.004168655556E-01  8.333460290921E-02
C46 -4.800866637653E-01  4.004168655556E-01 -8.333460290921E-02
C47  4.242447647865E-01 -2.946723052208E-01  8.457725741893E-03
C48 -4.242447647865E-01  2.946723052208E-01 -8.457725741893E-03
C49 -4.420004397687E-01  3.874509198891E-01  7.458543035420E-02
C50  4.420004397687E-01 -3.874509198891E-01 -7.458543035420E-02
C51 -3.857603066879E-01  2.818505667068E-01  1.505137765763E-01
C52  3.857603066879E-01 -2.818505667068E-01 -1.505137765763E-01
C53 -4.030060047551E-01  3.752943128418E-01  2.326106449705E-01
C54  4.030060047551E-01 -3.752943128418E-01 -2.326106449705E-01
C55 -3.453978665370E-01  2.697070700869E-01  3.101570777178E-01
C56  3.453978665370E-01 -2.697070700869E-01 -3.101570777178E-01
C57 -3.628424654712E-01  3.659530935073E-01  3.901059521339E-01
C58  3.628424654712E-01 -3.659530935073E-01 -3.901059521339E-01
H59 -4.508728829261E-01 -3.510630849650E-01  4.632733129996E-01
H60  4.508728829261E-01  3.510630849650E-01 -4.632733129996E-01
H61  4.461503509628E-01 -1.596143364263E-01  3.337433199369E-01
H62 -4.461503509628E-01  1.596143364263E-01 -3.337433199369E-01
H63  4.050078606347E-01 -1.488440048124E-01  1.740136916422E-01
H64 -4.050078606347E-01  1.488440048124E-01 -1.740136916422E-01
H65  3.661349752892E-01 -1.361431537597E-01  1.503904701841E-02
H66 -3.661349752892E-01  1.361431537597E-01 -1.503904701841E-02
H67 -3.276285873963E-01  1.232927128978E-01  1.440120038545E-01
H68  3.276285873963E-01 -1.232927128978E-01 -1.440120038545E-01
H69 -2.870891577343E-01  1.113682653106E-01  3.037195166170E-01
H70  2.870891577343E-01 -1.113682653106E-01 -3.037195166170E-01
H71 -3.184217586250E-01  2.847255621496E-01  4.483175394028E-01
H72  3.184217586250E-01 -2.847255621496E-01 -4.483175394028E-01


#===END

data_OPT_STEP_96

_symmetry_space_group_name_H-M 'P 1'
_cell_length_a      8.17288728
_cell_length_b      6.23875883
_cell_length_c     15.83296832
_cell_angle_alpha   98.821335
_cell_angle_beta  106.704276
_cell_angle_gamma   87.887099

loop_
_atom_site_label
_atom_site_fract_x
_atom_site_fract_y
_atom_site_fract_z
C1  1.311229611256E-01  4.976422831745E-02  4.041394496688E-01
C2 -1.311229611256E-01 -4.976422831745E-02 -4.041394496688E-01
C3 -6.846107692982E-03 -2.492072277102E-01  2.923922479926E-01
C4  6.846107692982E-03  2.492072277102E-01 -2.923922479926E-01
C5  5.003523145286E-02 -1.588262958136E-01  3.795351345385E-01
C6 -5.003523145286E-02  1.588262958136E-01 -3.795351345385E-01
C7  1.530302401733E-01  1.615021629458E-01  3.408049052551E-01
C8 -1.530302401733E-01 -1.615021629458E-01 -3.408049052551E-01
C9  9.588720235474E-02  7.314913304479E-02  2.480442632834E-01
C10 -9.588720235474E-02 -7.314913304479E-02 -2.480442632834E-01
C11  1.171550354390E-01  1.828702603490E-01  1.822127544856E-01
C12 -1.171550354390E-01 -1.828702603490E-01 -1.822127544856E-01
C13  5.984651130788E-02  9.482198807510E-02  9.101153079157E-02
C14 -5.984651130788E-02 -9.482198807510E-02 -9.101153079157E-02
C15  8.062252805178E-02  2.046409706685E-01  2.410263016382E-02
C16 -8.062252805178E-02 -2.046409706685E-01 -2.410263016382E-02
C17 -2.317955640058E-02 -1.165161876679E-01  6.610912156101E-02
C18  2.317955640058E-02  1.165161876679E-01 -6.610912156101E-02
C19 -4.355656063864E-02 -2.265902739882E-01  1.339784030161E-01
C20  4.355656063864E-02  2.265902739882E-01 -1.339784030161E-01
C21  1.340764964263E-02 -1.382821647535E-01  2.231543365092E-01
C22 -1.340764964263E-02  1.382821647535E-01 -2.231543365092E-01
H23  1.752115572872E-01  1.184938541050E-01  4.740467156554E-01
H24 -1.752115572872E-01 -1.184938541050E-01 -4.740467156554E-01
H25 -6.865249664864E-02 -4.070760808415E-01  2.737775644326E-01
H26  6.865249664864E-02  4.070760808415E-01 -2.737775644326E-01
H27  3.358263197933E-02 -2.448508617099E-01  4.310880004075E-01
H28 -3.358263197933E-02  2.448508617099E-01 -4.310880004075E-01
H29  2.134345326159E-01  3.203812127324E-01  3.589984835266E-01
H30 -2.134345326159E-01 -3.203812127324E-01 -3.589984835266E-01
H31  1.790823580707E-01  3.408456529248E-01  2.007424183993E-01
H32 -1.790823580707E-01 -3.408456529248E-01 -2.007424183993E-01
H33  1.425919655844E-01  3.625577144783E-01  4.261712619130E-02
H34 -1.425919655844E-01 -3.625577144783E-01 -4.261712619130E-02
H35 -1.053664630147E-01 -3.846001334867E-01  1.154235083788E-01
H36  1.053664630147E-01  3.846001334867E-01 -1.154235083788E-01
C37 -4.390259764871E-01 -4.248992515116E-01  3.987359020511E-01
C38  4.390259764871E-01  4.248992515116E-01 -3.987359020511E-01
C39 -4.960495913647E-01 -3.183187816117E-01  3.271185376298E-01
C40  4.960495913647E-01  3.183187816117E-01 -3.271185376298E-01
C41 -4.805156702108E-01 -4.125534648892E-01  2.413665234967E-01
C42  4.805156702108E-01  4.125534648892E-01 -2.413665234967E-01
C43  4.631044452159E-01 -3.074401488030E-01  1.674388443204E-01
C44 -4.631044452159E-01  3.074401488030E-01 -1.674388443204E-01
C45  4.801153093055E-01 -4.004260997369E-01  8.334573059625E-02
C46 -4.801153093055E-01  4.004260997369E-01 -8.334573059625E-02
C47  4.242663146933E-01 -2.946917947003E-01  8.481495593678E-03
C48 -4.242663146933E-01  2.946917947003E-01 -8.481495593678E-03
C49 -4.419939755042E-01  3.874616943444E-01  7.457207701266E-02
C50  4.419939755042E-01 -3.874616943444E-01 -7.457207701266E-02
C51 -3.857467233315E-01  2.818709041961E-01  1.504873654232E-01
C52  3.857467233315E-01 -2.818709041961E-01 -1.504873654232E-01
C53 -4.029655069624E-01  3.753042832506E-01  2.325942998814E-01
C54  4.029655069624E-01 -3.753042832506E-01 -2.325942998814E-01
C55 -3.453508705211E-01  2.697244389576E-01  3.101268684337E-01
C56  3.453508705211E-01 -2.697244389576E-01 -3.101268684337E-01
C57 -3.627690018003E-01  3.659596378626E-01  3.900855180548E-01
C58  3.627690018003E-01 -3.659596378626E-01 -3.900855180548E-01
H59 -4.507593897867E-01 -3.510932184280E-01  4.632846495269E-01
H60  4.507593897867E-01  3.510932184280E-01 -4.632846495269E-01
H61  4.462561969815E-01 -1.596511152163E-01  3.337795635405E-01
H62 -4.462561969815E-01  1.596511152163E-01 -3.337795635405E-01
H63  4.050804614249E-01 -1.488778263033E-01  1.740533339309E-01
H64 -4.050804614249E-01  1.488778263033E-01 -1.740533339309E-01
H65  3.661725441062E-01 -1.361779304652E-01  1.508092440549E-02
H66 -3.661725441062E-01  1.361779304652E-01 -1.508092440549E-02
H67 -3.276317999195E-01  1.233281689611E-01  1.439672995002E-01
H68  3.276317999195E-01 -1.233281689611E-01 -1.439672995002E-01
H69 -2.870590293442E-01  1.114004403227E-01  3.036712679312E-01
H70  2.870590293442E-01 -1.114004403227E-01 -3.036712679312E-01
H71 -3.183472144649E-01  2.847370353425E-01  4.482863236284E-01
H72  3.183472144649E-01 -2.847370353425E-01 -4.482863236284E-01


#===END

data_OPT_STEP_97

_symmetry_space_group_name_H-M 'P 1'
_cell_length_a      8.17023711
_cell_length_b      6.23936463
_cell_length_c     15.83343790
_cell_angle_alpha   98.817756
_cell_angle_beta  106.666358
_cell_angle_gamma   87.896554

loop_
_atom_site_label
_atom_site_fract_x
_atom_site_fract_y
_atom_site_fract_z
C1  1.311684810364E-01  4.986130493630E-02  4.041397690987E-01
C2 -1.311684810364E-01 -4.986130493630E-02 -4.041397690987E-01
C3 -6.712496029366E-03 -2.491800195157E-01  2.924718302536E-01
C4  6.712496029367E-03  2.491800195157E-01 -2.924718302536E-01
C5  5.015163627446E-02 -1.587594904666E-01  3.795928731906E-01
C6 -5.015163627446E-02  1.587594904666E-01 -3.795928731906E-01
C7  1.530247150643E-01  1.616054814316E-01  3.407736361157E-01
C8 -1.530247150643E-01 -1.616054814316E-01 -3.407736361157E-01
C9  9.591067852726E-02  7.320212906111E-02  2.480347765047E-01
C10 -9.591067852726E-02 -7.320212906111E-02 -2.480347765047E-01
C11  1.171460535486E-01  1.829097779417E-01  1.821677236100E-01
C12 -1.171460535486E-01 -1.829097779417E-01 -1.821677236100E-01
C13  5.985163616481E-02  9.483544684977E-02  9.099207240274E-02
C14 -5.985163616481E-02 -9.483544684977E-02 -9.099207240274E-02
C15  8.058199681676E-02  2.046546801639E-01  2.404588369983E-02
C16 -8.058199681676E-02 -2.046546801639E-01 -2.404588369983E-02
C17 -2.313588701995E-02 -1.165127754294E-01  6.614347599457E-02
C18  2.313588701995E-02  1.165127754294E-01 -6.614347599457E-02
C19 -4.346657542479E-02 -2.265808672836E-01  1.340487593747E-01
C20  4.346657542479E-02  2.265808672836E-01 -1.340487593747E-01
C21  1.349704068264E-02 -1.382572325343E-01  2.232015712457E-01
C22 -1.349704068264E-02  1.382572325343E-01 -2.232015712457E-01
H23  1.752288921838E-01  1.186159855247E-01  4.740286081523E-01
H24 -1.752288921838E-01 -1.186159855247E-01 -4.740286081523E-01
H25 -6.851862354205E-02 -4.070378380388E-01  2.738908742499E-01
H26  6.851862354205E-02  4.070378380388E-01 -2.738908742499E-01
H27  3.373914152429E-02 -2.447645465666E-01  4.311745993908E-01
H28 -3.373914152429E-02  2.447645465666E-01 -4.311745993908E-01
H29  2.133184464291E-01  3.205365471578E-01  3.589163598942E-01
H30 -2.133184464291E-01 -3.205365471578E-01 -3.589163598942E-01
H31  1.790243820116E-01  3.409061240172E-01  2.006501569491E-01
H32 -1.790243820116E-01 -3.409061240172E-01 -2.006501569491E-01
H33  1.425473418279E-01  3.625644945187E-01  4.251681770466E-02
H34 -1.425473418279E-01 -3.625644945187E-01 -4.251681770466E-02
H35 -1.052660993747E-01 -3.845856843116E-01  1.155335376703E-01
H36  1.052660993747E-01  3.845856843116E-01 -1.155335376703E-01
C37 -4.389614409903E-01 -4.246864589354E-01  3.987848669092E-01
C38  4.389614409903E-01  4.246864589354E-01 -3.987848669092E-01
C39 -4.959910807851E-01 -3.181979720001E-01  3.271602682231E-01
C40  4.959910807851E-01  3.181979720001E-01 -3.271602682231E-01
C41 -4.804489793920E-01 -4.124690396937E-01  2.413989611157E-01
C42  4.804489793920E-01  4.124690396937E-01 -2.413989611157E-01
C43  4.631603308994E-01 -3.073995742916E-01  1.674808732341E-01
C44 -4.631603308994E-01  3.073995742916E-01 -1.674808732341E-01
C45  4.801498334200E-01 -4.004056743753E-01  8.336800955011E-02
C46 -4.801498334200E-01  4.004056743753E-01 -8.336800955011E-02
C47  4.242869949097E-01 -2.946966803083E-01  8.513106520460E-03
C48 -4.242869949097E-01  2.946966803083E-01 -8.513106520460E-03
C49 -4.419865527224E-01  3.874843807547E-01  7.456395894559E-02
C50  4.419865527224E-01 -3.874843807547E-01 -7.456395894559E-02
C51 -3.857396201245E-01  2.819214573119E-01  1.504765496311E-01
C52  3.857396201245E-01 -2.819214573119E-01 -1.504765496311E-01
C53 -4.029270567552E-01  3.753917775176E-01  2.326035928865E-01
C54  4.029270567552E-01 -3.753917775176E-01 -2.326035928865E-01
C55 -3.453043550427E-01  2.698843756833E-01  3.101461463932E-01
C56  3.453043550427E-01 -2.698843756833E-01 -3.101461463932E-01
C57 -3.626806669120E-01  3.661917102828E-01  3.901252013097E-01
C58  3.626806669120E-01 -3.661917102828E-01 -3.901252013097E-01
H59 -4.508054526016E-01 -3.507418987289E-01  4.633076391094E-01
H60  4.508054526016E-01  3.507418987289E-01 -4.633076391094E-01
H61  4.463000207410E-01 -1.595559109079E-01  3.338264215099E-01
H62 -4.463000207410E-01  1.595559109079E-01 -3.338264215099E-01
H63  4.051388835870E-01 -1.488541675558E-01  1.741135303923E-01
H64 -4.051388835870E-01  1.488541675558E-01 -1.741135303923E-01
H65  3.661847595511E-01 -1.362051088778E-01  1.513511921386E-02
H66 -3.661847595511E-01  1.362051088778E-01 -1.513511921386E-02
H67 -3.276166287305E-01  1.233939223399E-01  1.439373869830E-01
H68  3.276166287305E-01 -1.233939223399E-01 -1.439373869830E-01
H69 -2.870022331999E-01  1.115726298987E-01  3.036829044080E-01
H70  2.870022331999E-01 -1.115726298987E-01 -3.036829044080E-01
H71 -3.181930849045E-01  2.850550206268E-01  4.483360438422E-01
H72  3.181930849045E-01 -2.850550206268E-01 -4.483360438422E-01


#===END

data_OPT_STEP_98

_symmetry_space_group_name_H-M 'P 1'
_cell_length_a      8.17212118
_cell_length_b      6.23900342
_cell_length_c     15.83289320
_cell_angle_alpha   98.819386
_cell_angle_beta  106.694252
_cell_angle_gamma   87.889060

loop_
_atom_site_label
_atom_site_fract_x
_atom_site_fract_y
_atom_site_fract_z
C1  1.311358020128E-01  4.977583752094E-02  4.041356672747E-01
C2 -1.311358020128E-01 -4.977583752094E-02 -4.041356672747E-01
C3 -6.818921627054E-03 -2.491983547954E-01  2.924080981541E-01
C4  6.818921627054E-03  2.491983547954E-01 -2.924080981541E-01
C5  5.005934425832E-02 -1.588137562968E-01  3.795449146998E-01
C6 -5.005934425832E-02  1.588137562968E-01 -3.795449146998E-01
C7  1.530348904960E-01  1.615118705432E-01  3.407942571326E-01
C8 -1.530348904960E-01 -1.615118705432E-01 -3.407942571326E-01
C9  9.589493518884E-02  7.315453736225E-02  2.480395092023E-01
C10 -9.589493518884E-02 -7.315453736225E-02 -2.480395092023E-01
C11  1.171548344547E-01  1.828719982445E-01  1.822004957577E-01
C12 -1.171548344547E-01 -1.828719982445E-01 -1.822004957577E-01
C13  5.984744668520E-02  9.482215587198E-02  9.100568246267E-02
C14 -5.984744668520E-02 -9.482215587198E-02 -9.100568246267E-02
C15  8.061317275043E-02  2.046394341407E-01  2.408894514741E-02
C16 -8.061317275043E-02 -2.046394341407E-01 -2.408894514741E-02
C17 -2.316956863255E-02 -1.165138750308E-01  6.611671831894E-02
C18  2.316956863255E-02  1.165138750308E-01 -6.611671831894E-02
C19 -4.353699465513E-02 -2.265851012572E-01  1.339935009225E-01
C20  4.353699465513E-02  2.265851012572E-01 -1.339935009225E-01
C21  1.342687280299E-02 -1.382762363367E-01  2.231632478262E-01
C22 -1.342687280299E-02  1.382762363367E-01 -2.231632478262E-01
H23  1.752204294468E-01  1.185070126029E-01  4.740381528391E-01
H24 -1.752204294468E-01 -1.185070126029E-01 -4.740381528391E-01
H25 -6.862274746286E-02 -4.070628061460E-01  2.738025914639E-01
H26  6.862274746286E-02  4.070628061460E-01 -2.738025914639E-01
H27  3.361256886587E-02 -2.448333755533E-01  4.311035618163E-01
H28 -3.361256886587E-02  2.448333755533E-01 -4.311035618163E-01
H29  2.134247960699E-01  3.203931145465E-01  3.589769785938E-01
H30 -2.134247960699E-01 -3.203931145465E-01 -3.589769785938E-01
H31  1.790733619654E-01  3.408471403668E-01  2.007192358169E-01
H32 -1.790733619654E-01 -3.408471403668E-01 -2.007192358169E-01
H33  1.425784922538E-01  3.625530453011E-01  4.259288821000E-02
H34 -1.425784922538E-01 -3.625530453011E-01 -4.259288821000E-02
H35 -1.053426194108E-01 -3.845916259364E-01  1.154485688397E-01
H36  1.053426194108E-01  3.845916259364E-01 -1.154485688397E-01
C37 -4.390031198497E-01 -4.248822374583E-01  3.987420486002E-01
C38  4.390031198497E-01  4.248822374583E-01 -3.987420486002E-01
C39 -4.960279263556E-01 -3.183122775767E-01  3.271260170389E-01
C40  4.960279263556E-01  3.183122775767E-01 -3.271260170389E-01
C41 -4.804978285302E-01 -4.125485918329E-01  2.413714239680E-01
C42  4.804978285302E-01  4.125485918329E-01 -2.413714239680E-01
C43  4.631203298465E-01 -3.074401623564E-01  1.674470275171E-01
C44 -4.631203298465E-01  3.074401623564E-01 -1.674470275171E-01
C45  4.801240657685E-01 -4.004260077021E-01  8.335003727880E-02
C46 -4.801240657685E-01  4.004260077021E-01 -8.335003727880E-02
C47  4.242723364241E-01 -2.946948316419E-01  8.488883119988E-03
C48 -4.242723364241E-01  2.946948316419E-01 -8.488883119988E-03
C49 -4.419921795675E-01  3.874645870673E-01  7.456900451349E-02
C50  4.419921795675E-01 -3.874645870673E-01 -7.456900451349E-02
C51 -3.857441197474E-01  2.818769346898E-01  1.504818895074E-01
C52  3.857441197474E-01 -2.818769346898E-01 -1.504818895074E-01
C53 -4.029550432534E-01  3.753119791921E-01  2.325926238338E-01
C54  4.029550432534E-01 -3.753119791921E-01 -2.325926238338E-01
C55 -3.453388635505E-01  2.697399452896E-01  3.101241528421E-01
C56  3.453388635505E-01 -2.697399452896E-01 -3.101241528421E-01
C57 -3.627476964473E-01  3.659811470178E-01  3.900867316248E-01
C58  3.627476964473E-01 -3.659811470178E-01 -3.900867316248E-01
H59 -4.507473766826E-01 -3.510624304200E-01  4.632886191647E-01
H60  4.507473766826E-01  3.510624304200E-01 -4.632886191647E-01
H61  4.462788106994E-01 -1.596497360254E-01  3.337904197924E-01
H62 -4.462788106994E-01  1.596497360254E-01 -3.337904197924E-01
H63  4.050993168912E-01 -1.488819636873E-01  1.740664660382E-01
H64 -4.050993168912E-01  1.488819636873E-01 -1.740664660382E-01
H65  3.661803282704E-01 -1.361857241732E-01  1.509372652183E-02
H66 -3.661803282704E-01  1.361857241732E-01 -1.509372652183E-02
H67 -3.276309814323E-01  1.233380575671E-01  1.439567356914E-01
H68  3.276309814323E-01 -1.233380575671E-01 -1.439567356914E-01
H69 -2.870489905812E-01  1.114191366719E-01  3.036646860350E-01
H70  2.870489905812E-01 -1.114191366719E-01 -3.036646860350E-01
H71 -3.183182797541E-01  2.847681704719E-01  4.482869912619E-01
H72  3.183182797541E-01 -2.847681704719E-01 -4.482869912619E-01


#===END

data_OPT_STEP_99

_symmetry_space_group_name_H-M 'P 1'
_cell_length_a      8.17132834
_cell_length_b      6.23927884
_cell_length_c     15.83255711
_cell_angle_alpha   98.816849
_cell_angle_beta  106.684280
_cell_angle_gamma   87.890817

loop_
_atom_site_label
_atom_site_fract_x
_atom_site_fract_y
_atom_site_fract_z
C1  1.311477315493E-01  4.978185194431E-02  4.041282525368E-01
C2 -1.311477315493E-01 -4.978185194431E-02 -4.041282525368E-01
C3 -6.799802361946E-03 -2.491857630689E-01  2.924183736820E-01
C4  6.799802361946E-03  2.491857630689E-01 -2.924183736820E-01
C5  5.007677523839E-02 -1.588020456417E-01  3.795490282190E-01
C6 -5.007677523839E-02  1.588020456417E-01 -3.795490282190E-01
C7  1.530435049095E-01  1.615120724219E-01  3.407816445919E-01
C8 -1.530435049095E-01 -1.615120724219E-01 -3.407816445919E-01
C9  9.590308403643E-02  7.315668092684E-02  2.480326789571E-01
C10 -9.590308403643E-02 -7.315668092684E-02 -2.480326789571E-01
C11  1.171558221145E-01  1.828706527295E-01  1.821884708446E-01
C12 -1.171558221145E-01 -1.828706527295E-01 -1.821884708446E-01
C13  5.984737350602E-02  9.482169229686E-02  9.099918636600E-02
C14 -5.984737350602E-02 -9.482169229686E-02 -9.099918636600E-02
C15  8.060589201013E-02  2.046350359463E-01  2.407740536657E-02
C16 -8.060589201013E-02 -2.046350359463E-01 -2.407740536657E-02
C17 -2.316176958210E-02 -1.165102286511E-01  6.612244773450E-02
C18  2.316176958210E-02  1.165102286511E-01 -6.612244773450E-02
C19 -4.352241182916E-02 -2.265775669538E-01  1.340043060617E-01
C20  4.352241182916E-02  2.265775669538E-01 -1.340043060617E-01
C21  1.344091925065E-02 -1.382686063448E-01  2.231682836775E-01
C22 -1.344091925065E-02  1.382686063448E-01 -2.231682836775E-01
H23  1.752313213836E-01  1.185125355561E-01  4.740263638812E-01
H24 -1.752313213836E-01 -1.185125355561E-01 -4.740263638812E-01
H25 -6.859622952803E-02 -4.070481989662E-01  2.738225528215E-01
H26  6.859622952803E-02  4.070481989662E-01 -2.738225528215E-01
H27  3.363181649395E-02 -2.448186027038E-01  4.311112734655E-01
H28 -3.363181649395E-02  2.448186027038E-01 -4.311112734655E-01
H29  2.134353624677E-01  3.203853813715E-01  3.589566825371E-01
H30 -2.134353624677E-01 -3.203853813715E-01 -3.589566825371E-01
H31  1.790697135828E-01  3.408419205135E-01  2.006984514188E-01
H32 -1.790697135828E-01 -3.408419205135E-01 -2.006984514188E-01
H33  1.425638005672E-01  3.625465608217E-01  4.257231203318E-02
H34 -1.425638005672E-01 -3.625465608217E-01 -4.257231203318E-02
H35 -1.053213145025E-01 -3.845815084255E-01  1.154687276103E-01
H36  1.053213145025E-01  3.845815084255E-01 -1.154687276103E-01
C37 -4.389799802269E-01 -4.248905000043E-01  3.987406653240E-01
C38  4.389799802269E-01  4.248905000043E-01 -3.987406653240E-01
C39 -4.960060426183E-01 -3.183183970048E-01  3.271288928730E-01
C40  4.960060426183E-01  3.183183970048E-01 -3.271288928730E-01
C41 -4.804836363989E-01 -4.125511350374E-01  2.413722569978E-01
C42  4.804836363989E-01  4.125511350374E-01 -2.413722569978E-01
C43  4.631333237427E-01 -3.074442637756E-01  1.674508034679E-01
C44 -4.631333237427E-01  3.074442637756E-01 -1.674508034679E-01
C45  4.801300724464E-01 -4.004281944431E-01  8.335193737681E-02
C46 -4.801300724464E-01  4.004281944431E-01 -8.335193737681E-02
C47  4.242768523578E-01 -2.946999394422E-01  8.493570130737E-03
C48 -4.242768523578E-01  2.946999394422E-01 -8.493570130737E-03
C49 -4.419903072829E-01  3.874677172863E-01  7.456602083698E-02
C50  4.419903072829E-01 -3.874677172863E-01 -7.456602083698E-02
C51 -3.857396774949E-01  2.818830501312E-01  1.504757344420E-01
C52  3.857396774949E-01 -2.818830501312E-01 -1.504757344420E-01
C53 -4.029447273667E-01  3.753149838665E-01  2.325882243119E-01
C54  4.029447273667E-01 -3.753149838665E-01 -2.325882243119E-01
C55 -3.453263485984E-01  2.697432242446E-01  3.101156585893E-01
C56  3.453263485984E-01 -2.697432242446E-01 -3.101156585893E-01
C57 -3.627304959915E-01  3.659786179807E-01  3.900796094586E-01
C58  3.627304959915E-01 -3.659786179807E-01 -3.900796094586E-01
H59 -4.507116395640E-01 -3.510847699121E-01  4.632911932905E-01
H60  4.507116395640E-01  3.510847699121E-01 -4.632911932905E-01
H61  4.463045682898E-01 -1.596592598997E-01  3.337979295124E-01
H62 -4.463045682898E-01  1.596592598997E-01 -3.337979295124E-01
H63  4.051163871156E-01 -1.488893535972E-01  1.740743742165E-01
H64 -4.051163871156E-01  1.488893535972E-01 -1.740743742165E-01
H65  3.661898775106E-01 -1.361935814494E-01  1.510226069112E-02
H66 -3.661898775106E-01  1.361935814494E-01 -1.510226069112E-02
H67 -3.276316586264E-01  1.233473667541E-01  1.439466928112E-01
H68  3.276316586264E-01 -1.233473667541E-01 -1.439466928112E-01
H69 -2.870410172950E-01  1.114262303766E-01  3.036522041282E-01
H70  2.870410172950E-01 -1.114262303766E-01 -3.036522041282E-01
H71 -3.183045846223E-01  2.847631408022E-01  4.482763467385E-01
H72  3.183045846223E-01 -2.847631408022E-01 -4.482763467385E-01


#===END

data_OPT_STEP_100

_symmetry_space_group_name_H-M 'P 1'
_cell_length_a      8.16976106
_cell_length_b      6.23981929
_cell_length_c     15.83201964
_cell_angle_alpha   98.811821
_cell_angle_beta  106.664244
_cell_angle_gamma   87.894398

loop_
_atom_site_label
_atom_site_fract_x
_atom_site_fract_y
_atom_site_fract_z
C1  1.311725205865E-01  4.979369043262E-02  4.041150093110E-01
C2 -1.311725205865E-01 -4.979369043262E-02 -4.041150093110E-01
C3 -6.758358733623E-03 -2.491634609388E-01  2.924415807527E-01
C4  6.758358733623E-03  2.491634609388E-01 -2.924415807527E-01
C5  5.011414218477E-02 -1.587797792880E-01  3.795599415183E-01
C6 -5.011414218477E-02  1.587797792880E-01 -3.795599415183E-01
C7  1.530599748982E-01  1.615143072087E-01  3.407568994379E-01
C8 -1.530599748982E-01 -1.615143072087E-01 -3.407568994379E-01
C9  9.591946062934E-02  7.316032234573E-02  2.480196654587E-01
C10 -9.591946062934E-02 -7.316032234573E-02 -2.480196654587E-01
C11  1.171575331326E-01  1.828675024013E-01  1.821637190719E-01
C12 -1.171575331326E-01 -1.828675024013E-01 -1.821637190719E-01
C13  5.984771039322E-02  9.482020486264E-02  9.098631956313E-02
C14 -5.984771039322E-02 -9.482020486264E-02 -9.098631956313E-02
C15  8.059009140899E-02  2.046272270132E-01  2.405295210346E-02
C16 -8.059009140899E-02 -2.046272270132E-01 -2.405295210346E-02
C17 -2.314529623140E-02 -1.165036585897E-01  6.613485126196E-02
C18  2.314529623140E-02  1.165036585897E-01 -6.613485126196E-02
C19 -4.349116613217E-02 -2.265639329356E-01  1.340281873772E-01
C20  4.349116613217E-02  2.265639329356E-01 -1.340281873772E-01
C21  1.347131757840E-02 -1.382554458863E-01  2.231801714800E-01
C22 -1.347131757840E-02  1.382554458863E-01 -2.231801714800E-01
H23  1.752530390746E-01  1.185236024587E-01  4.740041292777E-01
H24 -1.752530390746E-01 -1.185236024587E-01 -4.740041292777E-01
H25 -6.854309039312E-02 -4.070190515452E-01  2.738649284956E-01
H26  6.854309039312E-02  4.070190515452E-01 -2.738649284956E-01
H27  3.367462423560E-02 -2.447883224808E-01  4.311308767514E-01
H28 -3.367462423560E-02  2.447883224808E-01 -4.311308767514E-01
H29  2.134474206278E-01  3.203767012992E-01  3.589147429678E-01
H30 -2.134474206278E-01 -3.203767012992E-01 -3.589147429678E-01
H31  1.790602949785E-01  3.408319000182E-01  2.006549728670E-01
H32 -1.790602949785E-01 -3.408319000182E-01 -2.006549728670E-01
H33  1.425350941420E-01  3.625328700820E-01  4.252895856267E-02
H34 -1.425350941420E-01 -3.625328700820E-01 -4.252895856267E-02
H35 -1.052782256205E-01 -3.845614440286E-01  1.155116972921E-01
H36  1.052782256205E-01  3.845614440286E-01 -1.155116972921E-01
C37 -4.389315886935E-01 -4.248995088969E-01  3.987418324465E-01
C38  4.389315886935E-01  4.248995088969E-01 -3.987418324465E-01
C39 -4.959601736010E-01 -3.183287563216E-01  3.271371477684E-01
C40  4.959601736010E-01  3.183287563216E-01 -3.271371477684E-01
C41 -4.804523160566E-01 -4.125558635304E-01  2.413758013279E-01
C42  4.804523160566E-01  4.125558635304E-01 -2.413758013279E-01
C43  4.631611867068E-01 -3.074522943717E-01  1.674604627068E-01
C44 -4.631611867068E-01  3.074522943717E-01 -1.674604627068E-01
C45  4.801440020547E-01 -4.004321962314E-01  8.335691403454E-02
C46 -4.801440020547E-01  4.004321962314E-01 -8.335691403454E-02
C47  4.242868551612E-01 -2.947091521789E-01  8.504453770545E-03
C48 -4.242868551612E-01  2.947091521789E-01 -8.504453770545E-03
C49 -4.419867500576E-01  3.874732259718E-01  7.455968744167E-02
C50  4.419867500576E-01 -3.874732259718E-01 -7.455968744167E-02
C51 -3.857318408832E-01  2.818934390352E-01  1.504630551823E-01
C52  3.857318408832E-01 -2.818934390352E-01 -1.504630551823E-01
C53 -4.029240609051E-01  3.753197799597E-01  2.325799864239E-01
C54  4.029240609051E-01 -3.753197799597E-01 -2.325799864239E-01
C55 -3.453021950672E-01  2.697500078025E-01  3.101002110602E-01
C56  3.453021950672E-01 -2.697500078025E-01 -3.101002110602E-01
C57 -3.626937595322E-01  3.659787378999E-01  3.900687453862E-01
C58  3.626937595322E-01 -3.659787378999E-01 -3.900687453862E-01
H59 -4.506518644331E-01 -3.511056443555E-01  4.632968091835E-01
H60  4.506518644331E-01  3.511056443555E-01 -4.632968091835E-01
H61  4.463576363703E-01 -1.596772645006E-01  3.338151676756E-01
H62 -4.463576363703E-01  1.596772645006E-01 -3.338151676756E-01
H63  4.051518720211E-01 -1.489045915827E-01  1.740927862860E-01
H64 -4.051518720211E-01  1.489045915827E-01 -1.740927862860E-01
H65  3.662080514688E-01 -1.362100422186E-01  1.512141123927E-02
H66 -3.662080514688E-01  1.362100422186E-01 -1.512141123927E-02
H67 -3.276322110496E-01  1.233652499533E-01  1.439256495174E-01
H68  3.276322110496E-01 -1.233652499533E-01 -1.439256495174E-01
H69 -2.870253927605E-01  1.114400850914E-01  3.036280319702E-01
H70  2.870253927605E-01 -1.114400850914E-01 -3.036280319702E-01
H71 -3.182684410403E-01  2.847636651561E-01  4.482599627181E-01
H72  3.182684410403E-01 -2.847636651561E-01 -4.482599627181E-01


#===END

data_OPT_STEP_101

_symmetry_space_group_name_H-M 'P 1'
_cell_length_a      8.16820372
_cell_length_b      6.24035461
_cell_length_c     15.83153006
_cell_angle_alpha   98.806792
_cell_angle_beta  106.644171
_cell_angle_gamma   87.897976

loop_
_atom_site_label
_atom_site_fract_x
_atom_site_fract_y
_atom_site_fract_z
C1  1.311978973709E-01  4.980529108979E-02  4.041023798396E-01
C2 -1.311978973709E-01 -4.980529108979E-02 -4.041023798396E-01
C3 -6.716121715381E-03 -2.491412723493E-01  2.924659370375E-01
C4  6.716121715381E-03  2.491412723493E-01 -2.924659370375E-01
C5  5.015217540317E-02 -1.587573993099E-01  3.795718941339E-01
C6 -5.015217540317E-02  1.587573993099E-01 -3.795718941339E-01
C7  1.530769066633E-01  1.615167424125E-01  3.407328716657E-01
C8 -1.530769066633E-01 -1.615167424125E-01 -3.407328716657E-01
C9  9.593665353717E-02  7.316470054599E-02  2.480074691515E-01
C10 -9.593665353717E-02 -7.316470054599E-02 -2.480074691515E-01
C11  1.171597755049E-01  1.828650027383E-01  1.821393277759E-01
C12 -1.171597755049E-01 -1.828650027383E-01 -1.821393277759E-01
C13  5.984836500362E-02  9.481908151874E-02  9.097370981257E-02
C14 -5.984836500362E-02 -9.481908151874E-02 -9.097370981257E-02
C15  8.057398509413E-02  2.046195971614E-01  2.402798330201E-02
C16 -8.057398509413E-02 -2.046195971614E-01 -2.402798330201E-02
C17 -2.312822918077E-02 -1.164968527283E-01  6.614777842071E-02
C18  2.312822918077E-02  1.164968527283E-01 -6.614777842071E-02
C19 -4.345896341790E-02 -2.265498534864E-01  1.340531247372E-01
C20  4.345896341790E-02  2.265498534864E-01 -1.340531247372E-01
C21  1.350269259455E-02 -1.382418010573E-01  2.231930213849E-01
C22 -1.350269259455E-02  1.382418010573E-01 -2.231930213849E-01
H23  1.752751295959E-01  1.185337474217E-01  4.739822522123E-01
H24 -1.752751295959E-01 -1.185337474217E-01 -4.739822522123E-01
H25 -6.849043590864E-02 -4.069899561906E-01  2.739080773171E-01
H26  6.849043590864E-02  4.069899561906E-01 -2.739080773171E-01
H27  3.371821717670E-02 -2.447580978922E-01  4.311515512660E-01
H28 -3.371821717670E-02  2.447580978922E-01 -4.311515512660E-01
H29  2.134583017120E-01  3.203688272365E-01  3.588730763866E-01
H30 -2.134583017120E-01 -3.203688272365E-01 -3.588730763866E-01
H31  1.790514285458E-01  3.408229191281E-01  2.006112975507E-01
H32 -1.790514285458E-01 -3.408229191281E-01 -2.006112975507E-01
H33  1.425065612770E-01  3.625196747234E-01  4.248463928654E-02
H34 -1.425065612770E-01 -3.625196747234E-01 -4.248463928654E-02
H35 -1.052348935499E-01 -3.845408350819E-01  1.155556634413E-01
H36  1.052348935499E-01  3.845408350819E-01 -1.155556634413E-01
C37 -4.388834250636E-01 -4.249074378666E-01  3.987438775793E-01
C38  4.388834250636E-01  4.249074378666E-01 -3.987438775793E-01
C39 -4.959141635141E-01 -3.183390583833E-01  3.271461015511E-01
C40  4.959141635141E-01  3.183390583833E-01 -3.271461015511E-01
C41 -4.804202529645E-01 -4.125605007905E-01  2.413800345200E-01
C42  4.804202529645E-01  4.125605007905E-01 -2.413800345200E-01
C43  4.631899652880E-01 -3.074609368662E-01  1.674709734757E-01
C44 -4.631899652880E-01  3.074609368662E-01 -1.674709734757E-01
C45  4.801584860441E-01 -4.004364160632E-01  8.336240466229E-02
C46 -4.801584860441E-01  4.004364160632E-01 -8.336240466229E-02
C47  4.242973101180E-01 -2.947182001875E-01  8.515871989563E-03
C48 -4.242973101180E-01  2.947182001875E-01 -8.515871989563E-03
C49 -4.419829457673E-01  3.874784788622E-01  7.455342801040E-02
C50  4.419829457673E-01 -3.874784788622E-01 -7.455342801040E-02
C51 -3.857239923197E-01  2.819029454879E-01  1.504506484619E-01
C52  3.857239923197E-01 -2.819029454879E-01 -1.504506484619E-01
C53 -4.029028542578E-01  3.753244576470E-01  2.325724422017E-01
C54  4.029028542578E-01 -3.753244576470E-01 -2.325724422017E-01
C55 -3.452774491356E-01  2.697575589684E-01  3.100860505143E-01
C56  3.452774491356E-01 -2.697575589684E-01 -3.100860505143E-01
C57 -3.626564515668E-01  3.659804353470E-01  3.900591452618E-01
C58  3.626564515668E-01 -3.659804353470E-01 -3.900591452618E-01
H59 -4.505954770143E-01 -3.511221374475E-01  4.633022916924E-01
H60  4.505954770143E-01  3.511221374475E-01 -4.633022916924E-01
H61  4.464102989961E-01 -1.596954271099E-01  3.338327076400E-01
H62 -4.464102989961E-01  1.596954271099E-01 -3.338327076400E-01
H63  4.051879037165E-01 -1.489206424946E-01  1.741118208120E-01
H64 -4.051879037165E-01  1.489206424946E-01 -1.741118208120E-01
H65  3.662264173658E-01 -1.362258383618E-01  1.514140758348E-02
H66 -3.662264173658E-01  1.362258383618E-01 -1.514140758348E-02
H67 -3.276323922788E-01  1.233814568098E-01  1.439043734915E-01
H68  3.276323922788E-01 -1.233814568098E-01 -1.439043734915E-01
H69 -2.870086530139E-01  1.114545774857E-01  3.036050741116E-01
H70  2.870086530139E-01 -1.114545774857E-01 -3.036050741116E-01
H71 -3.182310700303E-01  2.847667890496E-01  4.482449635379E-01
H72  3.182310700303E-01 -2.847667890496E-01 -4.482449635379E-01


#===END

data_OPT_STEP_102

_symmetry_space_group_name_H-M 'P 1'
_cell_length_a      8.16667925
_cell_length_b      6.24086206
_cell_length_c     15.83106477
_cell_angle_alpha   98.801680
_cell_angle_beta  106.623951
_cell_angle_gamma   87.901684

loop_
_atom_site_label
_atom_site_fract_x
_atom_site_fract_y
_atom_site_fract_z
C1  1.312232369941E-01  4.981774441796E-02  4.040899923613E-01
C2 -1.312232369941E-01 -4.981774441796E-02 -4.040899923613E-01
C3 -6.672787736004E-03 -2.491211926698E-01  2.924913585011E-01
C4  6.672787736004E-03  2.491211926698E-01 -2.924913585011E-01
C5  5.019124315564E-02 -1.587361242084E-01  3.795848047669E-01
C6 -5.019124315564E-02  1.587361242084E-01 -3.795848047669E-01
C7  1.530925258682E-01  1.615210877473E-01  3.407084007752E-01
C8 -1.530925258682E-01 -1.615210877473E-01 -3.407084007752E-01
C9  9.595323382753E-02  7.316902645584E-02  2.479949677604E-01
C10 -9.595323382753E-02 -7.316902645584E-02 -2.479949677604E-01
C11  1.171613733967E-01  1.828627210963E-01  1.821141718101E-01
C12 -1.171613733967E-01 -1.828627210963E-01 -1.821141718101E-01
C13  5.984918868260E-02  9.481779389674E-02  9.096080084533E-02
C14 -5.984918868260E-02 -9.481779389674E-02 -9.096080084533E-02
C15  8.055795368975E-02  2.046128707780E-01  2.400257166357E-02
C16 -8.055795368975E-02 -2.046128707780E-01 -2.400257166357E-02
C17 -2.311123010686E-02 -1.164908167623E-01  6.616092884978E-02
C18  2.311123010686E-02  1.164908167623E-01 -6.616092884978E-02
C19 -4.342664443067E-02 -2.265373569606E-01  1.340787563559E-01
C20  4.342664443067E-02  2.265373569606E-01 -1.340787563559E-01
C21  1.353446441448E-02 -1.382296714169E-01  2.232063720450E-01
C22 -1.353446441448E-02  1.382296714169E-01 -2.232063720450E-01
H23  1.752965866319E-01  1.185463555100E-01  4.739606009598E-01
H24 -1.752965866319E-01 -1.185463555100E-01 -4.739606009598E-01
H25 -6.843714613813E-02 -4.069628185240E-01  2.739526062591E-01
H26  6.843714613813E-02  4.069628185240E-01 -2.739526062591E-01
H27  3.376371133658E-02 -2.447285772693E-01  4.311739212684E-01
H28 -3.376371133658E-02  2.447285772693E-01 -4.311739212684E-01
H29  2.134652416349E-01  3.203656253349E-01  3.588302640666E-01
H30 -2.134652416349E-01 -3.203656253349E-01 -3.588302640666E-01
H31  1.790409186692E-01  3.408152692123E-01  2.005662499526E-01
H32 -1.790409186692E-01 -3.408152692123E-01 -2.005662499526E-01
H33  1.424791163033E-01  3.625069956441E-01  4.243952660201E-02
H34 -1.424791163033E-01 -3.625069956441E-01 -4.243952660201E-02
H35 -1.051917800487E-01 -3.845219407551E-01  1.156007664990E-01
H36  1.051917800487E-01  3.845219407551E-01 -1.156007664990E-01
C37 -4.388350168827E-01 -4.249102627007E-01  3.987471979772E-01
C38  4.388350168827E-01  4.249102627007E-01 -3.987471979772E-01
C39 -4.958683606548E-01 -3.183463859192E-01  3.271556718264E-01
C40  4.958683606548E-01  3.183463859192E-01 -3.271556718264E-01
C41 -4.803878212389E-01 -4.125634262929E-01  2.413847946060E-01
C42  4.803878212389E-01  4.125634262929E-01 -2.413847946060E-01
C43  4.632182071354E-01 -3.074684066425E-01  1.674816856771E-01
C44 -4.632182071354E-01  3.074684066425E-01 -1.674816856771E-01
C45  4.801727744610E-01 -4.004401981873E-01  8.336793961534E-02
C46 -4.801727744610E-01  4.004401981873E-01 -8.336793961534E-02
C47  4.243072684925E-01 -2.947269512772E-01  8.527217576890E-03
C48 -4.243072684925E-01  2.947269512772E-01 -8.527217576890E-03
C49 -4.419791171501E-01  3.874835375440E-01  7.454727929840E-02
C50  4.419791171501E-01 -3.874835375440E-01 -7.454727929840E-02
C51 -3.857161691757E-01  2.819125085947E-01  1.504386234207E-01
C52  3.857161691757E-01 -2.819125085947E-01 -1.504386234207E-01
C53 -4.028815182602E-01  3.753298806782E-01  2.325654241784E-01
C54  4.028815182602E-01 -3.753298806782E-01 -2.325654241784E-01
C55 -3.452528566336E-01  2.697669985646E-01  3.100728778083E-01
C56  3.452528566336E-01 -2.697669985646E-01 -3.100728778083E-01
C57 -3.626180082929E-01  3.659864429267E-01  3.900511112309E-01
C58  3.626180082929E-01 -3.659864429267E-01 -3.900511112309E-01
H59 -4.505413202149E-01 -3.511293198089E-01  4.633083928918E-01
H60  4.505413202149E-01  3.511293198089E-01 -4.633083928918E-01
H61  4.464626121462E-01 -1.597103300405E-01  3.338506789176E-01
H62 -4.464626121462E-01  1.597103300405E-01 -3.338506789176E-01
H63  4.052232790985E-01 -1.489351866815E-01  1.741310159982E-01
H64 -4.052232790985E-01  1.489351866815E-01 -1.741310159982E-01
H65  3.662430798665E-01 -1.362422614146E-01  1.516117776409E-02
H66 -3.662430798665E-01  1.362422614146E-01 -1.516117776409E-02
H67 -3.276315937219E-01  1.233986038709E-01  1.438837503566E-01
H68  3.276315937219E-01 -1.233986038709E-01 -1.438837503566E-01
H69 -2.869918348952E-01  1.114707786142E-01  3.035832921835E-01
H70  2.869918348952E-01 -1.114707786142E-01 -3.035832921835E-01
H71 -3.181902117748E-01  2.847762170972E-01  4.482322767186E-01
H72  3.181902117748E-01 -2.847762170972E-01 -4.482322767186E-01


#===END

data_OPT_STEP_103

_symmetry_space_group_name_H-M 'P 1'
_cell_length_a      8.16517609
_cell_length_b      6.24134721
_cell_length_c     15.83057339
_cell_angle_alpha   98.796478
_cell_angle_beta  106.603595
_cell_angle_gamma   87.905508

loop_
_atom_site_label
_atom_site_fract_x
_atom_site_fract_y
_atom_site_fract_z
C1  1.312490134880E-01  4.983125667710E-02  4.040781812018E-01
C2 -1.312490134880E-01 -4.983125667710E-02 -4.040781812018E-01
C3 -6.629283035892E-03 -2.490996617401E-01  2.925174276899E-01
C4  6.629283035892E-03  2.490996617401E-01 -2.925174276899E-01
C5  5.023054775926E-02 -1.587135542101E-01  3.795982955565E-01
C6 -5.023054775926E-02  1.587135542101E-01 -3.795982955565E-01
C7  1.531096678182E-01  1.615258598301E-01  3.406848257525E-01
C8 -1.531096678182E-01 -1.615258598301E-01 -3.406848257525E-01
C9  9.597127958684E-02  7.317479686864E-02  2.479834054733E-01
C10 -9.597127958684E-02 -7.317479686864E-02 -2.479834054733E-01
C11  1.171645126145E-01  1.828621617426E-01  1.820898352679E-01
C12 -1.171645126145E-01 -1.828621617426E-01 -1.820898352679E-01
C13  5.985030748991E-02  9.481760879374E-02  9.094823014085E-02
C14 -5.985030748991E-02 -9.481760879374E-02 -9.094823014085E-02
C15  8.054202846588E-02  2.046064160307E-01  2.397672621595E-02
C16 -8.054202846588E-02 -2.046064160307E-01 -2.397672621595E-02
C17 -2.309374251522E-02 -1.164844028094E-01  6.617463660731E-02
C18  2.309374251522E-02  1.164844028094E-01 -6.617463660731E-02
C19 -4.339360066393E-02 -2.265240020954E-01  1.341050989166E-01
C20  4.339360066393E-02  2.265240020954E-01 -1.341050989166E-01
C21  1.356693011948E-02 -1.382160457354E-01  2.232204850068E-01
C22 -1.356693011948E-02  1.382160457354E-01 -2.232204850068E-01
H23  1.753186703817E-01  1.185586959832E-01  4.739392508119E-01
H24 -1.753186703817E-01 -1.185586959832E-01 -4.739392508119E-01
H25 -6.838385262352E-02 -4.069351730836E-01  2.739978727787E-01
H26  6.838385262352E-02  4.069351730836E-01 -2.739978727787E-01
H27  3.380902864501E-02 -2.446985387516E-01  4.311965403284E-01
H28 -3.380902864501E-02  2.446985387516E-01 -4.311965403284E-01
H29  2.134747152053E-01  3.203615547825E-01  3.587883250777E-01
H30 -2.134747152053E-01 -3.203615547825E-01 -3.587883250777E-01
H31  1.790329274227E-01  3.408092370005E-01  2.005221526279E-01
H32 -1.790329274227E-01 -3.408092370005E-01 -2.005221526279E-01
H33  1.424510600887E-01  3.624959161206E-01  4.239363032682E-02
H34 -1.424510600887E-01 -3.624959161205E-01 -4.239363032682E-02
H35 -1.051481494031E-01 -3.845028797223E-01  1.156466767539E-01
H36  1.051481494031E-01  3.845028797223E-01 -1.156466767539E-01
C37 -4.387881053887E-01 -4.249119994462E-01  3.987499869004E-01
C38  4.387881053887E-01  4.249119994462E-01 -3.987499869004E-01
C39 -4.958237192765E-01 -3.183523990928E-01  3.271646420878E-01
C40  4.958237192765E-01  3.183523990928E-01 -3.271646420878E-01
C41 -4.803558181409E-01 -4.125650148706E-01  2.413894321095E-01
C42  4.803558181409E-01  4.125650148706E-01 -2.413894321095E-01
C43  4.632473391999E-01 -3.074749243003E-01  1.674924547645E-01
C44 -4.632473391999E-01  3.074749243003E-01 -1.674924547645E-01
C45  4.801876344173E-01 -4.004432439659E-01  8.337364588797E-02
C46 -4.801876344173E-01  4.004432439659E-01 -8.337364588797E-02
C47  4.243176595195E-01 -2.947350782721E-01  8.538513152914E-03
C48 -4.243176595195E-01  2.947350782721E-01 -8.538513152914E-03
C49 -4.419748275205E-01  3.874891910460E-01  7.454146729458E-02
C50  4.419748275205E-01 -3.874891910460E-01 -7.454146729458E-02
C51 -3.857076242249E-01  2.819231886961E-01  1.504272615670E-01
C52  3.857076242249E-01 -2.819231886961E-01 -1.504272615670E-01
C53 -4.028597141700E-01  3.753376561375E-01  2.325590336227E-01
C54  4.028597141700E-01 -3.753376561375E-01 -2.325590336227E-01
C55 -3.452264800756E-01  2.697798556197E-01  3.100609447002E-01
C56  3.452264800756E-01 -2.697798556197E-01 -3.100609447002E-01
C57 -3.625799816245E-01  3.659948379862E-01  3.900433482730E-01
C58  3.625799816245E-01 -3.659948379862E-01 -3.900433482730E-01
H59 -4.504882861600E-01 -3.511368950044E-01  4.633139653407E-01
H60  4.504882861600E-01  3.511368950044E-01 -4.633139653407E-01
H61  4.465122162490E-01 -1.597245498540E-01  3.338673979640E-01
H62 -4.465122162490E-01  1.597245498540E-01 -3.338673979640E-01
H63  4.052591616137E-01 -1.489489288734E-01  1.741501113482E-01
H64 -4.052591616137E-01  1.489489288734E-01 -1.741501113482E-01
H65  3.662613954316E-01 -1.362560156614E-01  1.518114542524E-02
H66 -3.662613954316E-01  1.362560156614E-01 -1.518114542524E-02
H67 -3.276309526824E-01  1.234146698104E-01  1.438637758598E-01
H68  3.276309526824E-01 -1.234146698104E-01 -1.438637758598E-01
H69 -2.869718219720E-01  1.114904035239E-01  3.035636126641E-01
H70  2.869718219720E-01 -1.114904035239E-01 -3.035636126641E-01
H71 -3.181511666179E-01  2.847877435698E-01  4.482196214461E-01
H72  3.181511666179E-01 -2.847877435698E-01 -4.482196214461E-01


#===END

data_OPT_STEP_104

_symmetry_space_group_name_H-M 'P 1'
_cell_length_a      8.16387926
_cell_length_b      6.24173535
_cell_length_c     15.83003127
_cell_angle_alpha   98.789737
_cell_angle_beta  106.583135
_cell_angle_gamma   87.909679

loop_
_atom_site_label
_atom_site_fract_x
_atom_site_fract_y
_atom_site_fract_z
C1  1.312712362384E-01  4.983840529376E-02  4.040626131742E-01
C2 -1.312712362384E-01 -4.983840529376E-02 -4.040626131742E-01
C3 -6.590549387398E-03 -2.490923790444E-01  2.925427667278E-01
C4  6.590549387399E-03  2.490923790444E-01 -2.925427667278E-01
C5  5.026746289625E-02 -1.587044805889E-01  3.796105515755E-01
C6 -5.026746289625E-02  1.587044805889E-01 -3.796105515755E-01
C7  1.531148226804E-01  1.615311594784E-01  3.406532804794E-01
C8 -1.531148226804E-01 -1.615311594784E-01 -3.406532804794E-01
C9  9.597773063611E-02  7.317187533967E-02  2.479643344101E-01
C10 -9.597773063611E-02 -7.317187533967E-02 -2.479643344101E-01
C11  1.171588969282E-01  1.828522051829E-01  1.820578337173E-01
C12 -1.171588969282E-01 -1.828522051829E-01 -1.820578337173E-01
C13  5.985073881605E-02  9.481096178979E-02  9.093204356213E-02
C14 -5.985073881605E-02 -9.481096178979E-02 -9.093204356213E-02
C15  8.052999642230E-02  2.046002627648E-01  2.395172685065E-02
C16 -8.052999642230E-02 -2.046002627648E-01 -2.395172685065E-02
C17 -2.308263753572E-02 -1.164826032347E-01  6.618598688498E-02
C18  2.308263753572E-02  1.164826032347E-01 -6.618598688498E-02
C19 -4.337022397408E-02 -2.265207536120E-01  1.341289372075E-01
C20  4.337022397408E-02  2.265207536120E-01 -1.341289372075E-01
C21  1.359087994016E-02 -1.382154343782E-01  2.232311990524E-01
C22 -1.359087994016E-02  1.382154343782E-01 -2.232311990524E-01
H23  1.753364315581E-01  1.185750509289E-01  4.739155536488E-01
H24 -1.753364315581E-01 -1.185750509289E-01 -4.739155536488E-01
H25 -6.833337378505E-02 -4.069197073379E-01  2.740456747204E-01
H26  6.833337378505E-02  4.069197073379E-01 -2.740456747204E-01
H27  3.385470639233E-02 -2.446795012889E-01  4.312212621585E-01
H28 -3.385470639233E-02  2.446795012889E-01 -4.312212621585E-01
H29  2.134675491846E-01  3.203694675322E-01  3.587372013895E-01
H30 -2.134675491846E-01 -3.203694675322E-01 -3.587372013895E-01
H31  1.790122451631E-01  3.407968330283E-01  2.004685673413E-01
H32 -1.790122451631E-01 -3.407968330283E-01 -2.004685673413E-01
H33  1.424322065191E-01  3.624797956706E-01  4.234890494361E-02
H34 -1.424322065191E-01 -3.624797956706E-01 -4.234890494361E-02
H35 -1.051125778939E-01 -3.844931010387E-01  1.156924058994E-01
H36  1.051125778939E-01  3.844931010387E-01 -1.156924058994E-01
C37 -4.387309971535E-01 -4.249107918031E-01  3.987560373551E-01
C38  4.387309971535E-01  4.249107918031E-01 -3.987560373551E-01
C39 -4.957745720926E-01 -3.183589776022E-01  3.271746077536E-01
C40  4.957745720926E-01  3.183589776022E-01 -3.271746077536E-01
C41 -4.803237498345E-01 -4.125737907152E-01  2.413935860742E-01
C42  4.803237498345E-01  4.125737907152E-01 -2.413935860742E-01
C43  4.632656462563E-01 -3.074857702745E-01  1.674985341606E-01
C44 -4.632656462563E-01  3.074857702745E-01 -1.674985341606E-01
C45  4.801955157888E-01 -4.004512922477E-01  8.337589669507E-02
C46 -4.801955157888E-01  4.004512922477E-01 -8.337589669507E-02
C47  4.243200546334E-01 -2.947463394664E-01  8.545637234883E-03
C48 -4.243200546334E-01  2.947463394664E-01 -8.545637234883E-03
C49 -4.419712655980E-01  3.874889658196E-01  7.453602466193E-02
C50  4.419712655980E-01 -3.874889658196E-01 -7.453602466193E-02
C51 -3.856994734922E-01  2.819248592374E-01  1.504162022583E-01
C52  3.856994734922E-01 -2.819248592374E-01 -1.504162022583E-01
C53 -4.028394731145E-01  3.753286890073E-01  2.325513644365E-01
C54  4.028394731145E-01 -3.753286890073E-01 -2.325513644365E-01
C55 -3.452081619907E-01  2.697709137366E-01  3.100458877101E-01
C56  3.452081619907E-01 -2.697709137366E-01 -3.100458877101E-01
C57 -3.625351873986E-01  3.659941915759E-01  3.900374687416E-01
C58  3.625351873986E-01 -3.659941915759E-01 -3.900374687416E-01
H59 -4.504245658369E-01 -3.511360456726E-01  4.633227653709E-01
H60  4.504245658369E-01  3.511360456726E-01 -4.633227653709E-01
H61  4.465738349140E-01 -1.597334841159E-01  3.338866436486E-01
H62 -4.465738349140E-01  1.597334841159E-01 -3.338866436486E-01
H63  4.052836420703E-01 -1.489646209230E-01  1.741635919331E-01
H64 -4.052836420703E-01  1.489646209230E-01 -1.741635919331E-01
H65  3.662605729500E-01 -1.362863725161E-01  1.519330311042E-02
H66 -3.662605729500E-01  1.362863725161E-01 -1.519330311042E-02
H67 -3.276237164429E-01  1.234344393613E-01  1.438474216539E-01
H68  3.276237164429E-01 -1.234344393613E-01 -1.438474216539E-01
H69 -2.869687996197E-01  1.114855697812E-01  3.035393000400E-01
H70  2.869687996197E-01 -1.114855697812E-01 -3.035393000400E-01
H71 -3.180958499741E-01  2.847931460733E-01  4.482124954936E-01
H72  3.180958499741E-01 -2.847931460733E-01 -4.482124954936E-01


#===END

data_OPT_STEP_105

_symmetry_space_group_name_H-M 'P 1'
_cell_length_a      8.16077358
_cell_length_b      6.24275262
_cell_length_c     15.82905015
_cell_angle_alpha   98.780471
_cell_angle_beta  106.542552
_cell_angle_gamma   87.917048

loop_
_atom_site_label
_atom_site_fract_x
_atom_site_fract_y
_atom_site_fract_z
C1  1.313271774780E-01  4.986912918710E-02  4.040410818270E-01
C2 -1.313271774780E-01 -4.986912918710E-02 -4.040410818270E-01
C3 -6.501042984969E-03 -2.490428209448E-01  2.925945144620E-01
C4  6.501042984969E-03  2.490428209448E-01 -2.925945144620E-01
C5  5.034820338082E-02 -1.586528444620E-01  3.796378513404E-01
C6 -5.034820338082E-02  1.586528444620E-01 -3.796378513404E-01
C7  1.531565967195E-01  1.615416974215E-01  3.406097905696E-01
C8 -1.531565967195E-01 -1.615416974215E-01 -3.406097905696E-01
C9  9.601956553120E-02  7.318740008255E-02  2.479440964326E-01
C10 -9.601956553120E-02 -7.318740008255E-02 -2.479440964326E-01
C11  1.171694896752E-01  1.828547368857E-01  1.820123768582E-01
C12 -1.171694896752E-01 -1.828547368857E-01 -1.820123768582E-01
C13  5.985402330311E-02  9.481321060388E-02  9.090851973091E-02
C14 -5.985402330311E-02 -9.481321060388E-02 -9.090851973091E-02
C15  8.049669011689E-02  2.045875638860E-01  2.390064502964E-02
C16 -8.049669011689E-02 -2.045875638860E-01 -2.390064502964E-02
C17 -2.304490631136E-02 -1.164680798932E-01  6.621364025592E-02
C18  2.304490631136E-02  1.164680798932E-01 -6.621364025592E-02
C19 -4.330008432812E-02 -2.264901596715E-01  1.341816507342E-01
C20  4.330008432812E-02  2.264901596715E-01 -1.341816507342E-01
C21  1.365980949153E-02 -1.381828355415E-01  2.232601714679E-01
C22 -1.365980949153E-02  1.381828355415E-01 -2.232601714679E-01
H23  1.753863226096E-01  1.186006366380E-01  4.738751248827E-01
H24 -1.753863226096E-01 -1.186006366380E-01 -4.738751248827E-01
H25 -6.822495924818E-02 -4.068584399905E-01  2.741342329077E-01
H26  6.822495924818E-02  4.068584399905E-01 -2.741342329077E-01
H27  3.394597563359E-02 -2.446134174574E-01  4.312653905179E-01
H28 -3.394597563359E-02  2.446134174574E-01 -4.312653905179E-01
H29  2.134981451680E-01  3.203575398289E-01  3.586583671089E-01
H30 -2.134981451680E-01 -3.203575398289E-01 -3.586583671089E-01
H31  1.790023383201E-01  3.407873866218E-01  2.003847829169E-01
H32 -1.790023383201E-01 -3.407873866218E-01 -2.003847829169E-01
H33  1.423725604493E-01  3.624598307949E-01  4.225815868690E-02
H34 -1.423725604493E-01 -3.624598307949E-01 -4.225815868690E-02
H35 -1.050214658929E-01 -3.844515248925E-01  1.157830379230E-01
H36  1.050214658929E-01  3.844515248925E-01 -1.157830379230E-01
C37 -4.386443027243E-01 -4.249096588440E-01  3.987606557310E-01
C38  4.386443027243E-01  4.249096588440E-01 -3.987606557310E-01
C39 -4.956889715975E-01 -3.183647305830E-01  3.271927006805E-01
C40  4.956889715975E-01  3.183647305830E-01 -3.271927006805E-01
C41 -4.802592732219E-01 -4.125688465090E-01  2.414035804048E-01
C42  4.802592732219E-01  4.125688465090E-01 -2.414035804048E-01
C43  4.633286397590E-01 -3.074920003413E-01  1.675220185030E-01
C44 -4.633286397590E-01  3.074920003413E-01 -1.675220185030E-01
C45  4.802289285077E-01 -4.004527551950E-01  8.338867309728E-02
C46 -4.802289285077E-01  4.004527551950E-01 -8.338867309728E-02
C47  4.243450094968E-01 -2.947603281552E-01  8.569738026837E-03
C48 -4.243450094968E-01  2.947603281552E-01 -8.569738026837E-03
C49 -4.419625679522E-01  3.875037764234E-01  7.452431218121E-02
C50  4.419625679522E-01 -3.875037764234E-01 -7.452431218121E-02
C51 -3.856815770643E-01  2.819527270085E-01  1.503935447996E-01
C52  3.856815770643E-01 -2.819527270085E-01 -1.503935447996E-01
C53 -4.027941375166E-01  3.753548173948E-01  2.325392609250E-01
C54  4.027941375166E-01 -3.753548173948E-01 -2.325392609250E-01
C55 -3.451522126957E-01  2.698095229918E-01  3.100228956518E-01
C56  3.451522126957E-01 -2.698095229918E-01 -3.100228956518E-01
C57 -3.624632571012E-01  3.660199720433E-01  3.900212286202E-01
C58  3.624632571012E-01 -3.660199720433E-01 -3.900212286202E-01
H59 -4.503270859723E-01 -3.511504461274E-01  4.633332930321E-01
H60  4.503270859723E-01  3.511504461274E-01 -4.633332930321E-01
H61  4.466661216537E-01 -1.597576610414E-01  3.339199759154E-01
H62 -4.466661216537E-01  1.597576610414E-01 -3.339199759154E-01
H63  4.053608152224E-01 -1.489852870971E-01  1.742041964344E-01
H64 -4.053608152224E-01  1.489852870971E-01 -1.742041964344E-01
H65  3.663062986137E-01 -1.363068517639E-01  1.523603142738E-02
H66 -3.663062986137E-01  1.363068517639E-01 -1.523603142738E-02
H67 -3.276237476083E-01  1.234698733560E-01  1.438064917704E-01
H68  3.276237476083E-01 -1.234698733560E-01 -1.438064917704E-01
H69 -2.869209048148E-01  1.115399404372E-01  3.035013099643E-01
H70  2.869209048148E-01 -1.115399404372E-01 -3.035013099643E-01
H71 -3.180258337109E-01  2.848241370976E-01  4.481852077480E-01
H72  3.180258337109E-01 -2.848241370976E-01 -4.481852077480E-01


#===END

data_OPT_STEP_106

_symmetry_space_group_name_H-M 'P 1'
_cell_length_a      8.15785260
_cell_length_b      6.24365152
_cell_length_c     15.82801320
_cell_angle_alpha   98.769555
_cell_angle_beta  106.501438
_cell_angle_gamma   87.925129

loop_
_atom_site_label
_atom_site_fract_x
_atom_site_fract_y
_atom_site_fract_z
C1  1.313766277401E-01  4.989637768304E-02  4.040178664893E-01
C2 -1.313766277401E-01 -4.989637768304E-02 -4.040178664893E-01
C3 -6.414832571656E-03 -2.490013019173E-01  2.926476442805E-01
C4  6.414832571656E-03  2.490013019173E-01 -2.926476442805E-01
C5  5.042534536182E-02 -1.586087075985E-01  3.796656847855E-01
C6 -5.042534536182E-02  1.586087075985E-01 -3.796656847855E-01
C7  1.531912490107E-01  1.615507467566E-01  3.405635035485E-01
C8 -1.531912490107E-01 -1.615507467566E-01 -3.405635035485E-01
C9  9.605674451899E-02  7.320012931728E-02  2.479223976253E-01
C10 -9.605674451899E-02 -7.320012931728E-02 -2.479223976253E-01
C11  1.171769879318E-01  1.828565129328E-01  1.819648019902E-01
C12 -1.171769879318E-01 -1.828565129328E-01 -1.819648019902E-01
C13  5.985562008036E-02  9.481471561922E-02  9.088378931343E-02
C14 -5.985562008036E-02 -9.481471561922E-02 -9.088378931343E-02
C15  8.046472696049E-02  2.045759031613E-01  2.384784562633E-02
C16 -8.046472696049E-02 -2.045759031613E-01 -2.384784562633E-02
C17 -2.300968325647E-02 -1.164555831254E-01  6.624213446336E-02
C18  2.300968325647E-02  1.164555831254E-01 -6.624213446336E-02
C19 -4.323354494560E-02 -2.264642721243E-01  1.342356869017E-01
C20  4.323354494560E-02  2.264642721243E-01 -1.342356869017E-01
C21  1.372466618980E-02 -1.381552462771E-01  2.232896858679E-01
C22 -1.372466618980E-02  1.381552462771E-01 -2.232896858679E-01
H23  1.754287823605E-01  1.186226442524E-01  4.738321131664E-01
H24 -1.754287823605E-01 -1.186226442524E-01 -4.738321131664E-01
H25 -6.811893707133E-02 -4.068074616218E-01  2.742259561373E-01
H26  6.811893707133E-02  4.068074616218E-01 -2.742259561373E-01
H27  3.403559824199E-02 -2.445567329454E-01  4.313112754515E-01
H28 -3.403559824199E-02  2.445567329454E-01 -4.313112754515E-01
H29  2.135178994874E-01  3.203485612695E-01  3.585749903248E-01
H30 -2.135178994874E-01 -3.203485612695E-01 -3.585749903248E-01
H31  1.789889433584E-01  3.407785866575E-01  2.002975803374E-01
H32 -1.789889433584E-01 -3.407785866575E-01 -2.002975803374E-01
H33  1.423154941146E-01  3.624414236534E-01  4.216458980738E-02
H34 -1.423154941146E-01 -3.624414236534E-01 -4.216458980738E-02
H35 -1.049343504010E-01 -3.844163591655E-01  1.158762126061E-01
H36  1.049343504010E-01  3.844163591655E-01 -1.158762126061E-01
C37 -4.385507666203E-01 -4.249112155437E-01  3.987655371918E-01
C38  4.385507666203E-01  4.249112155437E-01 -3.987655371918E-01
C39 -4.956014179506E-01 -3.183743905969E-01  3.272092805117E-01
C40  4.956014179506E-01  3.183743905969E-01 -3.272092805117E-01
C41 -4.801976314948E-01 -4.125692005989E-01  2.414121187993E-01
C42  4.801976314948E-01  4.125692005989E-01 -2.414121187993E-01
C43  4.633866335851E-01 -3.075033380063E-01  1.675429828362E-01
C44 -4.633866335851E-01  3.075033380063E-01 -1.675429828362E-01
C45  4.802582326939E-01 -4.004574413954E-01  8.339999167510E-02
C46 -4.802582326939E-01  4.004574413954E-01 -8.339999167510E-02
C47  4.243655600848E-01 -2.947759581151E-01  8.591447349316E-03
C48 -4.243655600848E-01  2.947759581151E-01 -8.591447349316E-03
C49 -4.419536915984E-01  3.875171888279E-01  7.451352373696E-02
C50  4.419536915984E-01 -3.875171888279E-01 -7.451352373696E-02
C51 -3.856640479651E-01  2.819774438740E-01  1.503724305675E-01
C52  3.856640479651E-01 -2.819774438740E-01 -1.503724305675E-01
C53 -4.027509816926E-01  3.753758704776E-01  2.325276955128E-01
C54  4.027509816926E-01 -3.753758704776E-01 -2.325276955128E-01
C55 -3.450956248149E-01  2.698431862005E-01  3.100018529069E-01
C56  3.450956248149E-01 -2.698431862005E-01 -3.100018529069E-01
C57 -3.623864248507E-01  3.660413730626E-01  3.900066341364E-01
C58  3.623864248507E-01 -3.660413730626E-01 -3.900066341364E-01
H59 -4.502194497829E-01 -3.511644207082E-01  4.633439508904E-01
H60  4.502194497829E-01  3.511644207082E-01 -4.633439508904E-01
H61  4.467609178322E-01 -1.597847762822E-01  3.339506423367E-01
H62 -4.467609178322E-01  1.597847762822E-01 -3.339506423367E-01
H63  4.054313024811E-01 -1.490113626463E-01  1.742409748005E-01
H64 -4.054313024811E-01  1.490113626463E-01 -1.742409748005E-01
H65  3.663444201940E-01 -1.363292455034E-01  1.527460742847E-02
H66 -3.663444201940E-01  1.363292455034E-01 -1.527460742847E-02
H67 -3.276234685966E-01  1.235007476161E-01  1.437684213101E-01
H68  3.276234685966E-01 -1.235007476161E-01 -1.437684213101E-01
H69 -2.868750186822E-01  1.115863625204E-01  3.034661099463E-01
H70  2.868750186822E-01 -1.115863625204E-01 -3.034661099463E-01
H71 -3.179475046889E-01  2.848518956570E-01  4.481607770209E-01
H72  3.179475046889E-01 -2.848518956570E-01 -4.481607770209E-01


#===END

data_OPT_STEP_107

_symmetry_space_group_name_H-M 'P 1'
_cell_length_a      8.15496302
_cell_length_b      6.24453603
_cell_length_c     15.82697868
_cell_angle_alpha   98.758580
_cell_angle_beta  106.460254
_cell_angle_gamma   87.933169

loop_
_atom_site_label
_atom_site_fract_x
_atom_site_fract_y
_atom_site_fract_z
C1  1.314279416691E-01  4.992333920055E-02  4.039948152917E-01
C2 -1.314279416691E-01 -4.992333920055E-02 -4.039948152917E-01
C3 -6.328963618376E-03 -2.489595045265E-01  2.927012346367E-01
C4  6.328963618376E-03  2.489595045265E-01 -2.927012346367E-01
C5  5.050314648553E-02 -1.585647656499E-01  3.796938465926E-01
C6 -5.050314648553E-02  1.585647656499E-01 -3.796938465926E-01
C7  1.532265613653E-01  1.615608467795E-01  3.405167903722E-01
C8 -1.532265613653E-01 -1.615608467795E-01 -3.405167903722E-01
C9  9.609304704653E-02  7.321320941616E-02  2.478999502872E-01
C10 -9.609304704653E-02 -7.321320941616E-02 -2.478999502872E-01
C11  1.171837329309E-01  1.828582956029E-01  1.819163057082E-01
C12 -1.171837329309E-01 -1.828582956029E-01 -1.819163057082E-01
C13  5.985732469695E-02  9.481610572054E-02  9.085864591234E-02
C14 -5.985732469695E-02 -9.481610572054E-02 -9.085864591234E-02
C15  8.043318593820E-02  2.045647811659E-01  2.379514750991E-02
C16 -8.043318593820E-02 -2.045647811659E-01 -2.379514750991E-02
C17 -2.297510187448E-02 -1.164434407304E-01  6.627037700654E-02
C18  2.297510187448E-02  1.164434407304E-01 -6.627037700654E-02
C19 -4.316825252621E-02 -2.264386925533E-01  1.342896909867E-01
C20  4.316825252621E-02  2.264386925533E-01 -1.342896909867E-01
C21  1.378867365642E-02 -1.381279285373E-01  2.233190378062E-01
C22 -1.378867365642E-02  1.381279285373E-01 -2.233190378062E-01
H23  1.754734588450E-01  1.186460463752E-01  4.737896226545E-01
H24 -1.754734588450E-01 -1.186460463752E-01 -4.737896226545E-01
H25 -6.801298042537E-02 -4.067559754659E-01  2.743185938999E-01
H26  6.801298042537E-02  4.067559754659E-01 -2.743185938999E-01
H27  3.412547414608E-02 -2.445003160437E-01  4.313576357955E-01
H28 -3.412547414608E-02  2.445003160437E-01 -4.313576357955E-01
H29  2.135400803954E-01  3.203400139356E-01  3.584911062786E-01
H30 -2.135400803954E-01 -3.203400139356E-01 -3.584911062786E-01
H31  1.789748256516E-01  3.407701321643E-01  2.002090836184E-01
H32 -1.789748256516E-01 -3.407701321643E-01 -2.002090836184E-01
H33  1.422592800197E-01  3.624234180504E-01  4.207120990095E-02
H34 -1.422592800197E-01 -3.624234180504E-01 -4.207120990095E-02
H35 -1.048479160423E-01 -3.843813687381E-01  1.159698267840E-01
H36  1.048479160423E-01  3.843813687381E-01 -1.159698267840E-01
C37 -4.384583851023E-01 -4.249107621441E-01  3.987706545448E-01
C38  4.384583851023E-01  4.249107621441E-01 -3.987706545448E-01
C39 -4.955141095220E-01 -3.183814337158E-01  3.272263168975E-01
C40  4.955141095220E-01  3.183814337158E-01 -3.272263168975E-01
C41 -4.801351196140E-01 -4.125676752856E-01  2.414211459779E-01
C42  4.801351196140E-01  4.125676752856E-01 -2.414211459779E-01
C43  4.634441446829E-01 -3.075122910120E-01  1.675638734739E-01
C44 -4.634441446829E-01  3.075122910120E-01 -1.675638734739E-01
C45  4.802875523539E-01 -4.004610712285E-01  8.341115054080E-02
C46 -4.802875523539E-01  4.004610712285E-01 -8.341115054080E-02
C47  4.243856501055E-01 -2.947908677121E-01  8.612796481370E-03
C48 -4.243856501055E-01  2.947908677121E-01 -8.612796481370E-03
C49 -4.419445675408E-01  3.875301155314E-01  7.450289349119E-02
C50  4.419445675408E-01 -3.875301155314E-01 -7.450289349119E-02
C51 -3.856458278179E-01  2.820015121513E-01  1.503515843952E-01
C52  3.856458278179E-01 -2.820015121513E-01 -1.503515843952E-01
C53 -4.027067548250E-01  3.753965343750E-01  2.325163752904E-01
C54  4.027067548250E-01 -3.753965343750E-01 -2.325163752904E-01
C55 -3.450400920260E-01  2.698746758305E-01  3.099803889891E-01
C56  3.450400920260E-01 -2.698746758305E-01 -3.099803889891E-01
C57 -3.623100151261E-01  3.660630454168E-01  3.899922179071E-01
C58  3.623100151261E-01 -3.660630454168E-01 -3.899922179071E-01
H59 -4.501135603643E-01 -3.511771681906E-01  4.633548203184E-01
H60  4.501135603643E-01  3.511771681906E-01 -4.633548203184E-01
H61  4.468564599646E-01 -1.598079543279E-01  3.339820589300E-01
H62 -4.468564599646E-01  1.598079543279E-01 -3.339820589300E-01
H63  4.055014548420E-01 -1.490341782058E-01  1.742774548056E-01
H64 -4.055014548420E-01  1.490341782058E-01 -1.742774548056E-01
H65  3.663809292453E-01 -1.363527186354E-01  1.531229518264E-02
H66 -3.663809292453E-01  1.363527186354E-01 -1.531229518264E-02
H67 -3.276208665696E-01  1.235334677321E-01  1.437312199193E-01
H68  3.276208665696E-01 -1.235334677321E-01 -1.437312199193E-01
H69 -2.868302449736E-01  1.116310447463E-01  3.034303432177E-01
H70  2.868302449736E-01 -1.116310447463E-01 -3.034303432177E-01
H71 -3.178696850773E-01  2.848793139522E-01  4.481366366713E-01
H72  3.178696850773E-01 -2.848793139522E-01 -4.481366366713E-01


#===END

data_OPT_STEP_108

_symmetry_space_group_name_H-M 'P 1'
_cell_length_a      8.15237231
_cell_length_b      6.24523468
_cell_length_c     15.82587930
_cell_angle_alpha   98.745784
_cell_angle_beta  106.418650
_cell_angle_gamma   87.941925

loop_
_atom_site_label
_atom_site_fract_x
_atom_site_fract_y
_atom_site_fract_z
C1  1.314756247431E-01  4.994865378965E-02  4.039687722108E-01
C2 -1.314756247431E-01 -4.994865378965E-02 -4.039687722108E-01
C3 -6.248812489987E-03 -2.489285619505E-01  2.927556724069E-01
C4  6.248812489987E-03  2.489285619505E-01 -2.927556724069E-01
C5  5.057617070206E-02 -1.585288030462E-01  3.797219132139E-01
C6 -5.057617070206E-02  1.585288030462E-01 -3.797219132139E-01
C7  1.532549284594E-01  1.615743788953E-01  3.404637763173E-01
C8 -1.532549284594E-01 -1.615743788953E-01 -3.404637763173E-01
C9  9.612355031705E-02  7.322138830346E-02  2.478722058372E-01
C10 -9.612355031705E-02 -7.322138830346E-02 -2.478722058372E-01
C11  1.171873464840E-01  1.828550747250E-01  1.818616624851E-01
C12 -1.171873464840E-01 -1.828550747250E-01 -1.818616624851E-01
C13  5.986101453471E-02  9.481349120827E-02  9.083054506911E-02
C14 -5.986101453471E-02 -9.481349120827E-02 -9.083054506911E-02
C15  8.040545035699E-02  2.045559703955E-01  2.374161742955E-02
C16 -8.040545035699E-02 -2.045559703955E-01 -2.374161742955E-02
C17 -2.294440457945E-02 -1.164354575931E-01  6.629799539448E-02
C18  2.294440457945E-02  1.164354575931E-01 -6.629799539448E-02
C19 -4.310927644804E-02 -2.264213162118E-01  1.343440485536E-01
C20  4.310927644804E-02  2.264213162118E-01 -1.343440485536E-01
C21  1.384708383921E-02 -1.381101806613E-01  2.233472103645E-01
C22 -1.384708383921E-02  1.381101806613E-01 -2.233472103645E-01
H23  1.755128716207E-01  1.186766012512E-01  4.737445513869E-01
H24 -1.755128716207E-01 -1.186766012512E-01 -4.737445513869E-01
H25 -6.791366384838E-02 -4.067151772293E-01  2.744145162456E-01
H26  6.791366384838E-02  4.067151772293E-01 -2.744145162456E-01
H27  3.420994241591E-02 -2.444489558053E-01  4.314067500370E-01
H28 -3.420994241591E-02  2.444489558053E-01 -4.314067500370E-01
H29  2.135525684452E-01  3.203462539159E-01  3.583992384764E-01
H30 -2.135525684452E-01 -3.203462539159E-01 -3.583992384764E-01
H31  1.789555501066E-01  3.407613634900E-01  2.001121436199E-01
H32 -1.789555501066E-01 -3.407613634900E-01 -2.001121436199E-01
H33  1.422116331363E-01  3.624055528995E-01  4.197644260575E-02
H34 -1.422116331363E-01 -3.624055528995E-01 -4.197644260575E-02
H35 -1.047681758095E-01 -3.843553566787E-01  1.160662845164E-01
H36  1.047681758095E-01  3.843553566787E-01 -1.160662845164E-01
C37 -4.383564731543E-01 -4.249087242702E-01  3.987776705090E-01
C38  4.383564731543E-01  4.249087242702E-01 -3.987776705090E-01
C39 -4.954221024737E-01 -3.183902563470E-01  3.272430045025E-01
C40  4.954221024737E-01  3.183902563470E-01 -3.272430045025E-01
C41 -4.800707866426E-01 -4.125733449999E-01  2.414291783726E-01
C42  4.800707866426E-01  4.125733449999E-01 -2.414291783726E-01
C43  4.634936285104E-01 -3.075262272186E-01  1.675803601330E-01
C44 -4.634936285104E-01  3.075262272186E-01 -1.675803601330E-01
C45  4.803119450136E-01 -4.004694169995E-01  8.341924994564E-02
C46 -4.803119450136E-01  4.004694169995E-01 -8.341924994564E-02
C47  4.243990182523E-01 -2.948078989246E-01  8.630275816344E-03
C48 -4.243990182523E-01  2.948078989246E-01 -8.630275816344E-03
C49 -4.419348226338E-01  3.875379853166E-01  7.449297624646E-02
C50  4.419348226338E-01 -3.875379853166E-01 -7.449297624646E-02
C51 -3.856245443274E-01  2.820173737469E-01  1.503321528050E-01
C52  3.856245443274E-01 -2.820173737469E-01 -1.503321528050E-01
C53 -4.026606726762E-01  3.754034685593E-01  2.325048286873E-01
C54  4.026606726762E-01 -3.754034685593E-01 -2.325048286873E-01
C55 -3.449868567398E-01  2.698876790550E-01  3.099579169330E-01
C56  3.449868567398E-01 -2.698876790550E-01 -3.099579169330E-01
C57 -3.622262803801E-01  3.660761545346E-01  3.899799165267E-01
C58  3.622262803801E-01 -3.660761545346E-01 -3.899799165267E-01
H59 -4.499966601284E-01 -3.511824381104E-01  4.633672873811E-01
H60  4.499966601284E-01  3.511824381104E-01 -4.633672873811E-01
H61  4.469614112925E-01 -1.598274708527E-01  3.340130911297E-01
H62 -4.469614112925E-01  1.598274708527E-01 -3.340130911297E-01
H63  4.055624120080E-01 -1.490594660510E-01  1.743077931572E-01
H64 -4.055624120080E-01  1.490594660510E-01 -1.743077931572E-01
H65  3.664023002801E-01 -1.363867847657E-01  1.534285951760E-02
H66 -3.664023002801E-01  1.363867847657E-01 -1.534285951760E-02
H67 -3.276088923323E-01  1.235660712709E-01  1.436985588899E-01
H68  3.276088923323E-01 -1.235660712709E-01 -1.436985588899E-01
H69 -2.867923479937E-01  1.116545365569E-01  3.033929781734E-01
H70  2.867923479937E-01 -1.116545365569E-01 -3.033929781734E-01
H71 -3.177779860648E-01  2.848997829492E-01  4.481177901525E-01
H72  3.177779860648E-01 -2.848997829492E-01 -4.481177901525E-01


#===END

data_OPT_STEP_109

_symmetry_space_group_name_H-M 'P 1'
_cell_length_a      8.15243958
_cell_length_b      6.24531005
_cell_length_c     15.82272855
_cell_angle_alpha   98.745132
_cell_angle_beta  106.422042
_cell_angle_gamma   87.938743

loop_
_atom_site_label
_atom_site_fract_x
_atom_site_fract_y
_atom_site_fract_z
C1  1.316006686226E-01  4.958778271369E-02  4.039461249323E-01
C2 -1.316006686226E-01 -4.958778271369E-02 -4.039461249323E-01
C3 -6.401526786780E-03 -2.492664158834E-01  2.925898991953E-01
C4  6.401526786780E-03  2.492664158834E-01 -2.925898991953E-01
C5  5.038505925909E-02 -1.589209067458E-01  3.795751178901E-01
C6 -5.038505925908E-02  1.589209067458E-01 -3.795751178901E-01
C7  1.530616566878E-01  1.615594125408E-01  3.402182549446E-01
C8 -1.530616566878E-01 -1.615594125408E-01 -3.402182549446E-01
C9  9.588872890186E-02  7.290633955105E-02  2.475582416977E-01
C10 -9.588872890186E-02 -7.290633955105E-02 -2.475582416977E-01
C11  1.169089266836E-01  1.823658633599E-01  1.815842773619E-01
C12 -1.169089266836E-01 -1.823658633599E-01 -1.815842773619E-01
C13  6.027999950184E-02  9.486877227460E-02  9.078529774526E-02
C14 -6.027999950184E-02 -9.486877227460E-02 -9.078529774526E-02
C15  8.031266620267E-02  2.046191092401E-01  2.386887148886E-02
C16 -8.031266620267E-02 -2.046191092401E-01 -2.386887148886E-02
C17 -2.305789963033E-02 -1.162227514985E-01  6.618928624076E-02
C18  2.305789963033E-02  1.162227514985E-01 -6.618928624076E-02
C19 -4.310000552978E-02 -2.263254660967E-01  1.343896896791E-01
C20  4.310000552978E-02  2.263254660967E-01 -1.343896896791E-01
C21  1.364596056455E-02 -1.385118358194E-01  2.231880152920E-01
C22 -1.364596056455E-02  1.385118358194E-01 -2.231880152920E-01
H23  1.756887234084E-01  1.191032897483E-01  4.739375889684E-01
H24 -1.756887234084E-01 -1.191032897483E-01 -4.739375889684E-01
H25 -6.796141443750E-02 -4.066727906895E-01  2.743333337558E-01
H26  6.796141443750E-02  4.066727906895E-01 -2.743333337558E-01
H27  3.411681179749E-02 -2.444025294689E-01  4.314096718000E-01
H28 -3.411681179749E-02  2.444025294689E-01 -4.314096718000E-01
H29  2.137888035450E-01  3.215284119662E-01  3.585190552554E-01
H30 -2.137888035450E-01 -3.215284119662E-01 -3.585190552554E-01
H31  1.787959033349E-01  3.406957559514E-01  2.000107423622E-01
H32 -1.787959033349E-01 -3.406957559514E-01 -2.000107423622E-01
H33  1.422066924265E-01  3.621109334625E-01  4.200510392546E-02
H34 -1.422066924265E-01 -3.621109334625E-01 -4.200510392546E-02
H35 -1.046525047905E-01 -3.841900960518E-01  1.161535867976E-01
H36  1.046525047905E-01  3.841900960518E-01 -1.161535867976E-01
C37 -4.384817318230E-01 -4.241698272419E-01  3.988829113094E-01
C38  4.384817318230E-01  4.241698272419E-01 -3.988829113094E-01
C39 -4.954577859473E-01 -3.184990654388E-01  3.273365660214E-01
C40  4.954577859473E-01  3.184990654388E-01 -3.273365660214E-01
C41 -4.795608014404E-01 -4.131226752279E-01  2.414259669664E-01
C42  4.795608014404E-01  4.131226752279E-01 -2.414259669664E-01
C43  4.631112949195E-01 -3.076881976056E-01  1.672673017144E-01
C44 -4.631112949195E-01  3.076881976056E-01 -1.672673017144E-01
C45  4.803393746506E-01 -4.006771758467E-01  8.315935094994E-02
C46 -4.803393746506E-01  4.006771758467E-01 -8.315935094994E-02
C47  4.244650813373E-01 -2.949085037202E-01  8.458370526542E-03
C48 -4.244650813373E-01  2.949085037202E-01 -8.458370526542E-03
C49 -4.421187691562E-01  3.871598160649E-01  7.435987301529E-02
C50  4.421187691562E-01 -3.871598160649E-01 -7.435987301529E-02
C51 -3.855394549901E-01  2.817704213258E-01  1.503005909990E-01
C52  3.855394549901E-01 -2.817704213258E-01 -1.503005909990E-01
C53 -4.022696811732E-01  3.745009657285E-01  2.323197387242E-01
C54  4.022696811732E-01 -3.745009657285E-01 -2.323197387242E-01
C55 -3.453396519453E-01  2.689056090321E-01  3.094517916768E-01
C56  3.453396519453E-01 -2.689056090321E-01 -3.094517916768E-01
C57 -3.622261126440E-01  3.661682746401E-01  3.899945124313E-01
C58  3.622261126440E-01 -3.661682746401E-01 -3.899945124313E-01
H59 -4.501567397207E-01 -3.506488976470E-01  4.634928747841E-01
H60  4.501567397207E-01  3.506488976470E-01 -4.634928747841E-01
H61  4.470998401635E-01 -1.596894731695E-01  3.341173035354E-01
H62 -4.470998401635E-01  1.596894731695E-01 -3.341173035354E-01
H63  4.054587603484E-01 -1.489057417574E-01  1.742058210329E-01
H64 -4.054587603484E-01  1.489057417574E-01 -1.742058210329E-01
H65  3.665408145019E-01 -1.373413363135E-01  1.518081927326E-02
H66 -3.665408145019E-01  1.373413363135E-01 -1.518081927326E-02
H67 -3.276899262610E-01  1.244269851200E-01  1.438239799744E-01
H68  3.276899262610E-01 -1.244269851200E-01 -1.438239799744E-01
H69 -2.868879154703E-01  1.113948181686E-01  3.031588066608E-01
H70  2.868879154703E-01 -1.113948181686E-01 -3.031588066608E-01
H71 -3.174572678400E-01  2.848603793224E-01  4.483687971821E-01
H72  3.174572678400E-01 -2.848603793224E-01 -4.483687971821E-01


#===END

data_OPT_STEP_110

_symmetry_space_group_name_H-M 'P 1'
_cell_length_a      8.15236418
_cell_length_b      6.24526140
_cell_length_c     15.82508386
_cell_angle_alpha   98.745507
_cell_angle_beta  106.419111
_cell_angle_gamma   87.941215

loop_
_atom_site_label
_atom_site_fract_x
_atom_site_fract_y
_atom_site_fract_z
C1  1.315073940198E-01  4.985860487132E-02  4.039629258324E-01
C2 -1.315073940198E-01 -4.985860487132E-02 -4.039629258324E-01
C3 -6.286252947364E-03 -2.490127767529E-01  2.927148123716E-01
C4  6.286252947365E-03  2.490127767529E-01 -2.927148123716E-01
C5  5.052908684700E-02 -1.586266660943E-01  3.796855350008E-01
C6 -5.052908684700E-02  1.586266660943E-01 -3.796855350008E-01
C7  1.532069470164E-01  1.615710209467E-01  3.404019131826E-01
C8 -1.532069470164E-01 -1.615710209467E-01 -3.404019131826E-01
C9  9.606505218051E-02  7.314288995585E-02  2.477933865096E-01
C10 -9.606505218051E-02 -7.314288995585E-02 -2.477933865096E-01
C11  1.171178181652E-01  1.827328888115E-01  1.817917444024E-01
C12 -1.171178181652E-01 -1.827328888115E-01 -1.817917444024E-01
C13  5.996570348867E-02  9.482749525343E-02  9.081896425153E-02
C14 -5.996570348867E-02 -9.482749525343E-02 -9.081896425153E-02
C15  8.038204508044E-02  2.045717028524E-01  2.377298400541E-02
C16 -8.038204508044E-02 -2.045717028524E-01 -2.377298400541E-02
C17 -2.297248815298E-02 -1.163822474655E-01  6.627099874457E-02
C18  2.297248815298E-02  1.163822474655E-01 -6.627099874457E-02
C19 -4.310661762073E-02 -2.263974257464E-01  1.343558066193E-01
C20  4.310661762073E-02  2.263974257464E-01 -1.343558066193E-01
C21  1.379736939436E-02 -1.382103816840E-01  2.233076440029E-01
C22 -1.379736939436E-02  1.382103816840E-01 -2.233076440029E-01
H23  1.755573246362E-01  1.187836164354E-01  4.737925499514E-01
H24 -1.755573246362E-01 -1.187836164354E-01 -4.737925499514E-01
H25 -6.792451517028E-02 -4.067040371466E-01  2.743952066215E-01
H26  6.792451517028E-02  4.067040371466E-01 -2.743952066215E-01
H27  3.418747814070E-02 -2.444370938177E-01  4.314080124030E-01
H28 -3.418747814070E-02  2.444370938177E-01 -4.314080124030E-01
H29  2.136118751272E-01  3.206415322213E-01  3.584283460357E-01
H30 -2.136118751272E-01 -3.206415322213E-01 -3.584283460357E-01
H31  1.789154638395E-01  3.407448051536E-01  2.000858926824E-01
H32 -1.789154638395E-01 -3.407448051536E-01 -2.000858926824E-01
H33  1.422099113714E-01  3.623317982231E-01  4.198270072114E-02
H34 -1.422099113714E-01 -3.623317982231E-01 -4.198270072114E-02
H35 -1.047385126614E-01 -3.843138340907E-01  1.160889673431E-01
H36  1.047385126614E-01  3.843138340907E-01 -1.160889673431E-01
C37 -4.383869641543E-01 -4.247238196189E-01  3.988040868917E-01
C38  4.383869641543E-01  4.247238196189E-01 -3.988040868917E-01
C39 -4.954303605411E-01 -3.184171489708E-01  3.272665950309E-01
C40  4.954303605411E-01  3.184171489708E-01 -3.272665950309E-01
C41 -4.799427809525E-01 -4.127103717684E-01  2.414285642900E-01
C42  4.799427809525E-01  4.127103717684E-01 -2.414285642900E-01
C43  4.633984231727E-01 -3.075663400745E-01  1.675022877512E-01
C44 -4.633984231727E-01  3.075663400745E-01 -1.675022877512E-01
C45  4.803190432109E-01 -4.005210923068E-01  8.335440094781E-02
C46 -4.803190432109E-01  4.005210923068E-01 -8.335440094781E-02
C47  4.244155395740E-01 -2.948327767454E-01  8.587495766474E-03
C48 -4.244155395740E-01  2.948327767454E-01 -8.587495766474E-03
C49 -4.419805260450E-01  3.874432322293E-01  7.445963920220E-02
C50  4.419805260450E-01 -3.874432322293E-01 -7.445963920220E-02
C51 -3.856030671126E-01  2.819553795788E-01  1.503240272744E-01
C52  3.856030671126E-01 -2.819553795788E-01 -1.503240272744E-01
C53 -4.025623264251E-01  3.751777350123E-01  2.324584780152E-01
C54  4.025623264251E-01 -3.751777350123E-01 -2.324584780152E-01
C55 -3.450744518451E-01  2.696421487893E-01  3.098311568294E-01
C56  3.450744518451E-01 -2.696421487893E-01 -3.098311568294E-01
C57 -3.622253384033E-01  3.660992978858E-01  3.899835093769E-01
C58  3.622253384033E-01 -3.660992978858E-01 -3.899835093769E-01
H59 -4.500357163313E-01 -3.510490961003E-01  4.633988346553E-01
H60  4.500357163313E-01  3.510490961003E-01 -4.633988346553E-01
H61  4.469968777410E-01 -1.597929000967E-01  3.340394670730E-01
H62 -4.469968777410E-01  1.597929000967E-01 -3.340394670730E-01
H63  4.055370204581E-01 -1.490209450961E-01  1.742826579514E-01
H64 -4.055370204581E-01  1.490209450961E-01 -1.742826579514E-01
H65  3.664371303220E-01 -1.366255532804E-01  1.530271099600E-02
H66 -3.664371303220E-01  1.366255532804E-01 -1.530271099600E-02
H67 -3.276290807938E-01  1.237815813620E-01  1.437295635232E-01
H68  3.276290807938E-01 -1.237815813620E-01 -1.437295635232E-01
H69 -2.868158758614E-01  1.115900332796E-01  3.033341334228E-01
H70  2.868158758614E-01 -1.115900332796E-01 -3.033341334228E-01
H71 -3.176970266383E-01  2.848901237095E-01  4.481803477659E-01
H72  3.176970266383E-01 -2.848901237095E-01 -4.481803477659E-01


#===END

data_OPT_STEP_111

_symmetry_space_group_name_H-M 'P 1'
_cell_length_a      8.15234554
_cell_length_b      6.24524916
_cell_length_c     15.82567344
_cell_angle_alpha   98.745602
_cell_angle_beta  106.418381
_cell_angle_gamma   87.941833

loop_
_atom_site_label
_atom_site_fract_x
_atom_site_fract_y
_atom_site_fract_z
C1  1.314840437104E-01  4.992638678628E-02  4.039671326769E-01
C2 -1.314840437104E-01 -4.992638678628E-02 -4.039671326769E-01
C3 -6.257408234934E-03 -2.489492964159E-01  2.927460713669E-01
C4  6.257408234934E-03  2.489492964159E-01 -2.927460713669E-01
C5  5.056512871664E-02 -1.585530229081E-01  3.797131681609E-01
C6 -5.056512871664E-02  1.585530229081E-01 -3.797131681609E-01
C7  1.532433085638E-01  1.615739235678E-01  3.404478852517E-01
C8 -1.532433085638E-01 -1.615739235678E-01 -3.404478852517E-01
C9  9.610918187473E-02  7.320209360414E-02  2.478522435037E-01
C10 -9.610918187473E-02 -7.320209360414E-02 -2.478522435037E-01
C11  1.171701007162E-01  1.828247502405E-01  1.818436762447E-01
C12 -1.171701007162E-01 -1.828247502405E-01 -1.818436762447E-01
C13  5.988703931155E-02  9.481716280141E-02  9.082739314559E-02
C14 -5.988703931155E-02 -9.481716280141E-02 -9.082739314559E-02
C15  8.039941189807E-02  2.045598380541E-01  2.374898874853E-02
C16 -8.039941189807E-02 -2.045598380541E-01 -2.374898874853E-02
C17 -2.295111331219E-02 -1.164221678725E-01  6.629144864093E-02
C18  2.295111331219E-02  1.164221678725E-01 -6.629144864093E-02
C19 -4.310827611828E-02 -2.264154363301E-01  1.343473225523E-01
C20  4.310827611828E-02  2.264154363301E-01 -1.343473225523E-01
C21  1.383526012542E-02 -1.381349330819E-01  2.233375835224E-01
C22 -1.383526012542E-02  1.381349330819E-01 -2.233375835224E-01
H23  1.755244325958E-01  1.187036028416E-01  4.737562510419E-01
H24 -1.755244325958E-01 -1.187036028416E-01 -4.737562510419E-01
H25 -6.791528970188E-02 -4.067118625654E-01  2.744106835532E-01
H26  6.791528970188E-02  4.067118625654E-01 -2.744106835532E-01
H27  3.420515744123E-02 -2.444457474395E-01  4.314075922074E-01
H28 -3.420515744123E-02  2.444457474395E-01 -4.314075922074E-01
H29  2.135675895966E-01  3.204195584587E-01  3.584056504445E-01
H30 -2.135675895966E-01 -3.204195584587E-01 -3.584056504445E-01
H31  1.789453900500E-01  3.407570828982E-01  2.001047103772E-01
H32 -1.789453900500E-01 -3.407570828982E-01 -2.001047103772E-01
H33  1.422107215538E-01  3.623870790990E-01  4.197710188392E-02
H34 -1.422107215538E-01 -3.623870790990E-01 -4.197710188392E-02
H35 -1.047600463459E-01 -3.843448061460E-01  1.160727858614E-01
H36  1.047600463459E-01  3.843448061460E-01 -1.160727858614E-01
C37 -4.383632527129E-01 -4.248624789789E-01  3.987843571252E-01
C38  4.383632527129E-01  4.248624789789E-01 -3.987843571252E-01
C39 -4.954235027250E-01 -3.183966485525E-01  3.272490802460E-01
C40  4.954235027250E-01  3.183966485525E-01 -3.272490802460E-01
C41 -4.800383909435E-01 -4.126071793433E-01  2.414292128281E-01
C42  4.800383909435E-01  4.126071793433E-01 -2.414292128281E-01
C43  4.634702842725E-01 -3.075358433781E-01  1.675611002144E-01
C44 -4.634702842725E-01  3.075358433781E-01 -1.675611002144E-01
C45  4.803139521047E-01 -4.004820283624E-01  8.340321858478E-02
C46 -4.803139521047E-01  4.004820283624E-01 -8.340321858478E-02
C47  4.244031394896E-01 -2.948138249692E-01  8.619812516480E-03
C48 -4.244031394896E-01  2.948138249692E-01 -8.619812516480E-03
C49 -4.419459276470E-01  3.875141693593E-01  7.448461017894E-02
C50  4.419459276470E-01 -3.875141693593E-01 -7.448461017894E-02
C51 -3.856189903009E-01  2.820016740802E-01  1.503298951901E-01
C52  3.856189903009E-01 -2.820016740802E-01 -1.503298951901E-01
C53 -4.026355773876E-01  3.753471229506E-01  2.324932036400E-01
C54  4.026355773876E-01 -3.753471229506E-01 -2.324932036400E-01
C55 -3.450080807753E-01  2.698264957454E-01  3.099261095712E-01
C56  3.450080807753E-01 -2.698264957454E-01 -3.099261095712E-01
C57 -3.622251527326E-01  3.660820324797E-01  3.899807561186E-01
C58  3.622251527326E-01 -3.660820324797E-01 -3.899807561186E-01
H59 -4.500054345850E-01 -3.511492607303E-01  4.633752961121E-01
H60  4.500054345850E-01  3.511492607303E-01 -4.633752961121E-01
H61  4.469710993691E-01 -1.598187872229E-01  3.340199824725E-01
H62 -4.469710993691E-01  1.598187872229E-01 -3.340199824725E-01
H63  4.055566031464E-01 -1.490497798405E-01  1.743018860508E-01
H64 -4.055566031464E-01  1.490497798405E-01 -1.743018860508E-01
H65  3.664111775037E-01 -1.364463997882E-01  1.533321576037E-02
H66 -3.664111775037E-01  1.364463997882E-01 -1.533321576037E-02
H67 -3.276138526006E-01  1.236200417716E-01  1.437059354257E-01
H68  3.276138526006E-01 -1.236200417716E-01 -1.437059354257E-01
H69 -2.867978486667E-01  1.116388896744E-01  3.033780185561E-01
H70  2.867978486667E-01 -1.116388896744E-01 -3.033780185561E-01
H71 -3.177570428300E-01  2.848975665305E-01  4.481331828596E-01
H72  3.177570428300E-01 -2.848975665305E-01 -4.481331828596E-01


#===END

data_OPT_STEP_112

_symmetry_space_group_name_H-M 'P 1'
_cell_length_a      8.15235161
_cell_length_b      6.24524764
_cell_length_c     15.82577986
_cell_angle_alpha   98.745599
_cell_angle_beta  106.418186
_cell_angle_gamma   87.941933

loop_
_atom_site_label
_atom_site_fract_x
_atom_site_fract_y
_atom_site_fract_z
C1  1.314808012819E-01  4.995215106630E-02  4.039665135283E-01
C2 -1.314808012819E-01 -4.995215106630E-02 -4.039665135283E-01
C3 -6.248967798511E-03 -2.489317558883E-01  2.927550565672E-01
C4  6.248967798511E-03  2.489317558883E-01 -2.927550565672E-01
C5  5.057452743902E-02 -1.585279080579E-01  3.797216222612E-01
C6 -5.057452743902E-02  1.585279080579E-01 -3.797216222612E-01
C7  1.532601400114E-01  1.615878900579E-01  3.404642080427E-01
C8 -1.532601400114E-01 -1.615878900579E-01 -3.404642080427E-01
C9  9.612288109693E-02  7.321969620160E-02  2.478705185736E-01
C10 -9.612288109693E-02 -7.321969620160E-02 -2.478705185736E-01
C11  1.171921817689E-01  1.828554430289E-01  1.818594912177E-01
C12 -1.171921817689E-01 -1.828554430289E-01 -1.818594912177E-01
C13  5.985825918378E-02  9.480021192641E-02  9.082606396614E-02
C14 -5.985825918378E-02 -9.480021192641E-02 -9.082606396614E-02
C15  8.040641152765E-02  2.045531628954E-01  2.373760480356E-02
C16 -8.040641152765E-02 -2.045531628954E-01 -2.373760480356E-02
C17 -2.294203380347E-02 -1.164377392747E-01  6.629804216010E-02
C18  2.294203380347E-02  1.164377392747E-01 -6.629804216010E-02
C19 -4.311523729186E-02 -2.264215863707E-01  1.343387488930E-01
C20  4.311523729186E-02  2.264215863707E-01 -1.343387488930E-01
C21  1.384808757747E-02 -1.381094093948E-01  2.233472550018E-01
C22 -1.384808757747E-02  1.381094093948E-01 -2.233472550018E-01
H23  1.755142035918E-01  1.186794726846E-01  4.737419790143E-01
H24 -1.755142035918E-01 -1.186794726846E-01 -4.737419790143E-01
H25 -6.791435084814E-02 -4.067228975960E-01  2.744120239347E-01
H26  6.791435084814E-02  4.067228975960E-01 -2.744120239347E-01
H27  3.420686269103E-02 -2.444494179011E-01  4.314070082657E-01
H28 -3.420686269103E-02  2.444494179011E-01 -4.314070082657E-01
H29  2.135452723023E-01  3.203514698101E-01  3.583943474729E-01
H30 -2.135452723023E-01 -3.203514698101E-01 -3.583943474729E-01
H31  1.789438085981E-01  3.407533000559E-01  2.001058754638E-01
H32 -1.789438085981E-01 -3.407533000559E-01 -2.001058754638E-01
H33  1.422109098113E-01  3.624038244231E-01  4.197642510599E-02
H34 -1.422109098113E-01 -3.624038244231E-01 -4.197642510599E-02
H35 -1.047637728997E-01 -3.843551739171E-01  1.160686614397E-01
H36  1.047637728997E-01  3.843551739171E-01 -1.160686614397E-01
C37 -4.383502137299E-01 -4.249160269230E-01  3.987806791130E-01
C38  4.383502137299E-01  4.249160269230E-01 -3.987806791130E-01
C39 -4.954257318655E-01 -3.183918318444E-01  3.272386950021E-01
C40  4.954257318655E-01  3.183918318444E-01 -3.272386950021E-01
C41 -4.800727489361E-01 -4.125724000074E-01  2.414247424219E-01
C42  4.800727489361E-01  4.125724000074E-01 -2.414247424219E-01
C43  4.634946587725E-01 -3.075374412834E-01  1.675800713216E-01
C44 -4.634946587725E-01  3.075374412834E-01 -1.675800713216E-01
C45  4.803110844263E-01 -4.004759613560E-01  8.341790347259E-02
C46 -4.803110844263E-01  4.004759613560E-01 -8.341790347259E-02
C47  4.244035650034E-01 -2.948153452274E-01  8.629730199872E-03
C48 -4.244035650034E-01  2.948153452274E-01 -8.629730199872E-03
C49 -4.419375780782E-01  3.875415073476E-01  7.449513942633E-02
C50  4.419375780782E-01 -3.875415073476E-01 -7.449513942633E-02
C51 -3.856262618798E-01  2.820214940223E-01  1.503281708641E-01
C52  3.856262618798E-01 -2.820214940223E-01 -1.503281708641E-01
C53 -4.026620738033E-01  3.754065373382E-01  2.325032926602E-01
C54  4.026620738033E-01 -3.754065373382E-01 -2.325032926602E-01
C55 -3.449875448698E-01  2.698891534847E-01  3.099637031934E-01
C56  3.449875448698E-01 -2.698891534847E-01 -3.099637031934E-01
C57 -3.622239881614E-01  3.660689722046E-01  3.899757255146E-01
C58  3.622239881614E-01 -3.660689722046E-01 -3.899757255146E-01
H59 -4.499991094556E-01 -3.511672598546E-01  4.633704002639E-01
H60  4.499991094556E-01  3.511672598546E-01 -4.633704002639E-01
H61  4.469678977962E-01 -1.598275273920E-01  3.340150744012E-01
H62 -4.469678977962E-01  1.598275273920E-01 -3.340150744012E-01
H63  4.055627893495E-01 -1.490643865002E-01  1.743048592420E-01
H64 -4.055627893495E-01  1.490643865002E-01 -1.743048592420E-01
H65  3.663995474440E-01 -1.363958896135E-01  1.533965768554E-02
H66 -3.663995474440E-01  1.363958896135E-01 -1.533965768554E-02
H67 -3.276014551446E-01  1.235653659813E-01  1.436985922521E-01
H68  3.276014551446E-01 -1.235653659813E-01 -1.436985922521E-01
H69 -2.867939883306E-01  1.116373815220E-01  3.033848491769E-01
H70  2.867939883306E-01 -1.116373815220E-01 -3.033848491769E-01
H71 -3.177712186045E-01  2.849060708550E-01  4.481184450564E-01
H72  3.177712186045E-01 -2.849060708550E-01 -4.481184450564E-01


#===END

data_OPT_STEP_113

_symmetry_space_group_name_H-M 'P 1'
_cell_length_a      8.15240785
_cell_length_b      6.24526058
_cell_length_c     15.82577526
_cell_angle_alpha   98.745381
_cell_angle_beta  106.417792
_cell_angle_gamma   87.941720

loop_
_atom_site_label
_atom_site_fract_x
_atom_site_fract_y
_atom_site_fract_z
C1  1.314793845288E-01  4.995318075814E-02  4.039657137176E-01
C2 -1.314793845288E-01 -4.995318075814E-02 -4.039657137176E-01
C3 -6.247749151292E-03 -2.489288280674E-01  2.927573856091E-01
C4  6.247749151293E-03  2.489288280674E-01 -2.927573856091E-01
C5  5.056840655422E-02 -1.585215101460E-01  3.797230114696E-01
C6 -5.056840655422E-02  1.585215101460E-01 -3.797230114696E-01
C7  1.532585510335E-01  1.615857218506E-01  3.404617250016E-01
C8 -1.532585510335E-01 -1.615857218506E-01 -3.404617250016E-01
C9  9.612258224098E-02  7.321954247685E-02  2.478692957281E-01
C10 -9.612258224098E-02 -7.321954247685E-02 -2.478692957281E-01
C11  1.171921219223E-01  1.828504035880E-01  1.818570021415E-01
C12 -1.171921219223E-01 -1.828504035880E-01 -1.818570021415E-01
C13  5.986023990832E-02  9.480093939887E-02  9.082546748909E-02
C14 -5.986023990832E-02 -9.480093939887E-02 -9.082546748909E-02
C15  8.040933001140E-02  2.045498504478E-01  2.373721221166E-02
C16 -8.040933001140E-02 -2.045498504478E-01 -2.373721221166E-02
C17 -2.294082590696E-02 -1.164362574833E-01  6.629942781853E-02
C18  2.294082590696E-02  1.164362574833E-01 -6.629942781853E-02
C19 -4.311250440738E-02 -2.264195405531E-01  1.343421731190E-01
C20  4.311250440738E-02  2.264195405531E-01 -1.343421731190E-01
C21  1.384783040606E-02 -1.381077615275E-01  2.233485537159E-01
C22 -1.384783040606E-02  1.381077615275E-01 -2.233485537159E-01
H23  1.755192260395E-01  1.186818216269E-01  4.737412878037E-01
H24 -1.755192260395E-01 -1.186818216269E-01 -4.737412878037E-01
H25 -6.789969171494E-02 -4.067241873523E-01  2.744159324655E-01
H26  6.789969171494E-02  4.067241873523E-01 -2.744159324655E-01
H27  3.420545217665E-02 -2.444441175282E-01  4.314093502761E-01
H28 -3.420545217665E-02  2.444441175282E-01 -4.314093502761E-01
H29  2.135425828065E-01  3.203548523348E-01  3.583911769590E-01
H30 -2.135425828065E-01 -3.203548523348E-01 -3.583911769590E-01
H31  1.789314282992E-01  3.407598782590E-01  2.001023141962E-01
H32 -1.789314282992E-01 -3.407598782590E-01 -2.001023141962E-01
H33  1.422036913540E-01  3.624043401049E-01  4.197398405023E-02
H34 -1.422036913540E-01 -3.624043401049E-01 -4.197398405023E-02
H35 -1.047537984095E-01 -3.843573019542E-01  1.160725843801E-01
H36  1.047537984095E-01  3.843573019542E-01 -1.160725843801E-01
C37 -4.383556015827E-01 -4.249132664113E-01  3.987795448707E-01
C38  4.383556015827E-01  4.249132664113E-01 -3.987795448707E-01
C39 -4.954330578439E-01 -3.183981338104E-01  3.272383184580E-01
C40  4.954330578439E-01  3.183981338104E-01 -3.272383184580E-01
C41 -4.800776387009E-01 -4.125775538305E-01  2.414242310162E-01
C42  4.800776387009E-01  4.125775538305E-01 -2.414242310162E-01
C43  4.634878164654E-01 -3.075380289838E-01  1.675775644263E-01
C44 -4.634878164654E-01  3.075380289838E-01 -1.675775644263E-01
C45  4.803075229313E-01 -4.004770884560E-01  8.341651042644E-02
C46 -4.803075229313E-01  4.004770884560E-01 -8.341651042644E-02
C47  4.243973824065E-01 -2.948171185783E-01  8.628028344926E-03
C48 -4.243973824065E-01  2.948171185783E-01 -8.628028344926E-03
C49 -4.419351339041E-01  3.875419914732E-01  7.449493652490E-02
C50  4.419351339041E-01 -3.875419914732E-01 -7.449493652490E-02
C51 -3.856195478382E-01  2.820245226783E-01  1.503301140429E-01
C52  3.856195478382E-01 -2.820245226783E-01 -1.503301140429E-01
C53 -4.026613856043E-01  3.754051983968E-01  2.325028167769E-01
C54  4.026613856043E-01 -3.754051983968E-01 -2.325028167769E-01
C55 -3.449844466892E-01  2.698908537284E-01  3.099619703235E-01
C56  3.449844466892E-01 -2.698908537284E-01 -3.099619703235E-01
C57 -3.622193018542E-01  3.660766393846E-01  3.899774017135E-01
C58  3.622193018542E-01 -3.660766393846E-01 -3.899774017135E-01
H59 -4.499974342836E-01 -3.511653839330E-01  4.633696084135E-01
H60  4.499974342836E-01  3.511653839330E-01 -4.633696084135E-01
H61  4.469677592382E-01 -1.598302180312E-01  3.340152603823E-01
H62 -4.469677592382E-01  1.598302180312E-01 -3.340152603823E-01
H63  4.055605623258E-01 -1.490662303456E-01  1.743043793316E-01
H64 -4.055605623258E-01  1.490662303456E-01 -1.743043793316E-01
H65  3.663976032982E-01 -1.363985816855E-01  1.533904595387E-02
H66 -3.663976032982E-01  1.363985816855E-01 -1.533904595387E-02
H67 -3.275953268119E-01  1.235738852252E-01  1.436992428102E-01
H68  3.275953268119E-01 -1.235738852252E-01 -1.436992428102E-01
H69 -2.867954602880E-01  1.116446890419E-01  3.033839508994E-01
H70  2.867954602880E-01 -1.116446890419E-01 -3.033839508994E-01
H71 -3.177614545284E-01  2.849127730769E-01  4.481202416018E-01
H72  3.177614545284E-01 -2.849127730769E-01 -4.481202416018E-01


#===END

data_OPT_STEP_114

_symmetry_space_group_name_H-M 'P 1'
_cell_length_a      8.15240785
_cell_length_b      6.24526058
_cell_length_c     15.82577526
_cell_angle_alpha   98.745381
_cell_angle_beta  106.417792
_cell_angle_gamma   87.941720

loop_
_atom_site_label
_atom_site_fract_x
_atom_site_fract_y
_atom_site_fract_z
C1  1.314793845288E-01  4.995318075814E-02  4.039657137176E-01
C2 -1.314793845288E-01 -4.995318075814E-02 -4.039657137176E-01
C3 -6.247749151292E-03 -2.489288280674E-01  2.927573856091E-01
C4  6.247749151293E-03  2.489288280674E-01 -2.927573856091E-01
C5  5.056840655422E-02 -1.585215101460E-01  3.797230114696E-01
C6 -5.056840655422E-02  1.585215101460E-01 -3.797230114696E-01
C7  1.532585510335E-01  1.615857218506E-01  3.404617250016E-01
C8 -1.532585510335E-01 -1.615857218506E-01 -3.404617250016E-01
C9  9.612258224098E-02  7.321954247685E-02  2.478692957281E-01
C10 -9.612258224098E-02 -7.321954247685E-02 -2.478692957281E-01
C11  1.171921219223E-01  1.828504035880E-01  1.818570021415E-01
C12 -1.171921219223E-01 -1.828504035880E-01 -1.818570021415E-01
C13  5.986023990832E-02  9.480093939887E-02  9.082546748909E-02
C14 -5.986023990832E-02 -9.480093939887E-02 -9.082546748909E-02
C15  8.040933001140E-02  2.045498504478E-01  2.373721221166E-02
C16 -8.040933001140E-02 -2.045498504478E-01 -2.373721221166E-02
C17 -2.294082590696E-02 -1.164362574833E-01  6.629942781853E-02
C18  2.294082590696E-02  1.164362574833E-01 -6.629942781853E-02
C19 -4.311250440738E-02 -2.264195405531E-01  1.343421731190E-01
C20  4.311250440738E-02  2.264195405531E-01 -1.343421731190E-01
C21  1.384783040606E-02 -1.381077615275E-01  2.233485537159E-01
C22 -1.384783040606E-02  1.381077615275E-01 -2.233485537159E-01
H23  1.755192260395E-01  1.186818216269E-01  4.737412878037E-01
H24 -1.755192260395E-01 -1.186818216269E-01 -4.737412878037E-01
H25 -6.789969171494E-02 -4.067241873523E-01  2.744159324655E-01
H26  6.789969171494E-02  4.067241873523E-01 -2.744159324655E-01
H27  3.420545217665E-02 -2.444441175282E-01  4.314093502761E-01
H28 -3.420545217665E-02  2.444441175282E-01 -4.314093502761E-01
H29  2.135425828065E-01  3.203548523348E-01  3.583911769590E-01
H30 -2.135425828065E-01 -3.203548523348E-01 -3.583911769590E-01
H31  1.789314282992E-01  3.407598782590E-01  2.001023141962E-01
H32 -1.789314282992E-01 -3.407598782590E-01 -2.001023141962E-01
H33  1.422036913540E-01  3.624043401049E-01  4.197398405023E-02
H34 -1.422036913540E-01 -3.624043401049E-01 -4.197398405023E-02
H35 -1.047537984095E-01 -3.843573019542E-01  1.160725843801E-01
H36  1.047537984095E-01  3.843573019542E-01 -1.160725843801E-01
C37 -4.383556015827E-01 -4.249132664113E-01  3.987795448707E-01
C38  4.383556015827E-01  4.249132664113E-01 -3.987795448707E-01
C39 -4.954330578439E-01 -3.183981338104E-01  3.272383184580E-01
C40  4.954330578439E-01  3.183981338104E-01 -3.272383184580E-01
C41 -4.800776387009E-01 -4.125775538305E-01  2.414242310162E-01
C42  4.800776387009E-01  4.125775538305E-01 -2.414242310162E-01
C43  4.634878164654E-01 -3.075380289838E-01  1.675775644263E-01
C44 -4.634878164654E-01  3.075380289838E-01 -1.675775644263E-01
C45  4.803075229313E-01 -4.004770884560E-01  8.341651042644E-02
C46 -4.803075229313E-01  4.004770884560E-01 -8.341651042644E-02
C47  4.243973824065E-01 -2.948171185783E-01  8.628028344926E-03
C48 -4.243973824065E-01  2.948171185783E-01 -8.628028344926E-03
C49 -4.419351339041E-01  3.875419914732E-01  7.449493652490E-02
C50  4.419351339041E-01 -3.875419914732E-01 -7.449493652490E-02
C51 -3.856195478382E-01  2.820245226783E-01  1.503301140429E-01
C52  3.856195478382E-01 -2.820245226783E-01 -1.503301140429E-01
C53 -4.026613856043E-01  3.754051983968E-01  2.325028167769E-01
C54  4.026613856043E-01 -3.754051983968E-01 -2.325028167769E-01
C55 -3.449844466892E-01  2.698908537284E-01  3.099619703235E-01
C56  3.449844466892E-01 -2.698908537284E-01 -3.099619703235E-01
C57 -3.622193018542E-01  3.660766393846E-01  3.899774017135E-01
C58  3.622193018542E-01 -3.660766393846E-01 -3.899774017135E-01
H59 -4.499974342836E-01 -3.511653839330E-01  4.633696084135E-01
H60  4.499974342836E-01  3.511653839330E-01 -4.633696084135E-01
H61  4.469677592382E-01 -1.598302180312E-01  3.340152603823E-01
H62 -4.469677592382E-01  1.598302180312E-01 -3.340152603823E-01
H63  4.055605623258E-01 -1.490662303456E-01  1.743043793316E-01
H64 -4.055605623258E-01  1.490662303456E-01 -1.743043793316E-01
H65  3.663976032982E-01 -1.363985816855E-01  1.533904595387E-02
H66 -3.663976032982E-01  1.363985816855E-01 -1.533904595387E-02
H67 -3.275953268119E-01  1.235738852252E-01  1.436992428102E-01
H68  3.275953268119E-01 -1.235738852252E-01 -1.436992428102E-01
H69 -2.867954602880E-01  1.116446890419E-01  3.033839508994E-01
H70  2.867954602880E-01 -1.116446890419E-01 -3.033839508994E-01
H71 -3.177614545284E-01  2.849127730769E-01  4.481202416018E-01
H72  3.177614545284E-01 -2.849127730769E-01 -4.481202416018E-01


#===END
