###############################################################################
#
#                    CRYSTAL17 CIF FILE
#
###############################################################################

data_OPT_STEP_1

_symmetry_space_group_name_H-M 'P 1'
_cell_length_a      7.56500000
_cell_length_b      7.75000000
_cell_length_c     16.83500000
_cell_angle_alpha   89.150000
_cell_angle_beta   78.420000
_cell_angle_gamma   83.630000

loop_
_atom_site_label
_atom_site_fract_x
_atom_site_fract_y
_atom_site_fract_z
SI1  2.493448595214E-01 -2.904816456846E-01  3.224436275997E-01
SI2 -2.493448595214E-01  2.904816456846E-01 -3.224436275997E-01
C3  4.482257824304E-01 -5.990025159616E-02  8.070765783806E-02
C4 -4.482257824304E-01  5.990025159616E-02 -8.070765783806E-02
C5  3.212243725596E-01  4.730830305433E-02  4.536447908629E-02
C6 -3.212243725596E-01 -4.730830305433E-02 -4.536447908629E-02
C7  1.433061074648E-01  9.556105421931E-02  8.781677518228E-02
C8 -1.433061074648E-01 -9.556105421931E-02 -8.781677518228E-02
C9  1.655145340013E-02  1.957502983512E-01  5.312352428602E-02
C10 -1.655145340013E-02 -1.957502983512E-01 -5.312352428602E-02
C11 -1.652349428585E-01  2.421534967832E-01  9.599163355475E-02
C12  1.652349428585E-01 -2.421534967832E-01 -9.599163355475E-02
C13 -2.879864494122E-01  3.376175256404E-01  5.969987348614E-02
C14  2.879864494122E-01 -3.376175256404E-01 -5.969987348614E-02
C15 -2.375795582734E-01  3.937988642756E-01 -2.190255404521E-02
C16  2.375795582734E-01 -3.937988642756E-01  2.190255404521E-02
C17 -6.637186514391E-02  3.526863069028E-01 -6.495426951217E-02
C18  6.637186514391E-02 -3.526863069028E-01  6.495426951217E-02
C19  6.731708049092E-02  2.522266640433E-01 -2.954523364260E-02
C20 -6.731708049092E-02 -2.522266640433E-01  2.954523364260E-02
C21  2.427050265986E-01  2.074567746466E-01 -7.172124734074E-02
C22 -2.427050265986E-01 -2.074567746466E-01  7.172124734074E-02
C23  3.730470135607E-01  1.067052133508E-01 -3.685948599324E-02
C24 -3.730470135607E-01 -1.067052133508E-01  3.685948599324E-02
C25  3.936112273084E-01 -1.258722820083E-01  1.594709192011E-01
C26 -3.936112273084E-01  1.258722820083E-01 -1.594709192011E-01
C27  3.427443853574E-01 -1.874160795025E-01  2.258673705753E-01
C28 -3.427443853574E-01  1.874160795025E-01 -2.258673705753E-01
C29  3.269856933688E-01  4.652439541837E-01  3.124123001999E-01
C30 -3.269856933688E-01 -4.652439541837E-01 -3.124123001999E-01
C31  2.477672578587E-01  3.811047425490E-01  2.472172970177E-01
C32 -2.477672578587E-01 -3.811047425490E-01 -2.472172970177E-01
C33 -4.652078165507E-01  4.272599205339E-01  2.959598078679E-01
C34  4.652078165507E-01 -4.272599205339E-01 -2.959598078679E-01
C35  3.511691847297E-01 -1.904449285117E-01  4.040711446119E-01
C36 -3.511691847297E-01  1.904449285117E-01 -4.040711446119E-01
C37  3.131667838983E-01 -2.801254160515E-01  4.866062538515E-01
C38 -3.131667838983E-01  2.801254160515E-01 -4.866062538515E-01
C39  3.035376320654E-01  6.881332303508E-03  4.123921722254E-01
C40 -3.035376320654E-01 -6.881332303508E-03 -4.123921722254E-01
C41 -9.670738740017E-03 -2.541176980416E-01  3.347723769098E-01
C42  9.670738740017E-03  2.541176980416E-01 -3.347723769098E-01
C43 -1.068781377216E-01 -3.481542176720E-01  4.089498591863E-01
C44  1.068781377216E-01  3.481542176720E-01 -4.089498591863E-01
C45 -8.922972782475E-02 -6.343288517248E-02  3.327335928053E-01
C46  8.922972782475E-02  6.343288517248E-02 -3.327335928053E-01
H47  1.041770713047E-01  4.925050804465E-02  1.490805819530E-01
H48 -1.041770713047E-01 -4.925050804465E-02 -1.490805819530E-01
H49 -2.038037939037E-01  1.970659197737E-01  1.576271848923E-01
H50  2.038037939037E-01 -1.970659197737E-01 -1.576271848923E-01
H51 -4.260515429381E-01  3.695025229525E-01  9.242284235644E-02
H52  4.260515429381E-01 -3.695025229525E-01 -9.242284235644E-02
H53 -3.374206108975E-01  4.707112491670E-01 -4.928935735261E-02
H54  3.374206108975E-01 -4.707112491670E-01  4.928935735261E-02
H55 -2.772526782410E-02  3.970881981502E-01 -1.266657712630E-01
H56  2.772526782410E-02 -3.970881981502E-01  1.266657712630E-01
H57  2.816014935167E-01  2.498442989918E-01 -1.337405403428E-01
H58 -2.816014935167E-01 -2.498442989918E-01  1.337405403428E-01
H59  2.728812897628E-01  4.084067811857E-01  3.712073518015E-01
H60 -2.728812897628E-01 -4.084067811857E-01 -3.712073518015E-01
H61  2.843501329160E-01  4.447534067548E-01  1.887344335248E-01
H62 -2.843501329160E-01 -4.447534067548E-01 -1.887344335248E-01
H63  9.967731829636E-02  3.888599546765E-01  2.626199293849E-01
H64 -9.967731829636E-02 -3.888599546765E-01 -2.626199293849E-01
H65  2.995474790797E-01  2.436325785990E-01  2.385850836132E-01
H66 -2.995474790797E-01 -2.436325785990E-01 -2.385850836132E-01
H67 -4.241509267859E-01  2.871006441128E-01  2.913401043398E-01
H68  4.241509267859E-01 -2.871006441128E-01 -2.913401043398E-01
H69 -4.067295339446E-01  4.768679076824E-01  3.441611030888E-01
H70  4.067295339446E-01 -4.768679076824E-01 -3.441611030888E-01
H71 -4.030387850090E-01  4.851051980300E-01  2.389370294483E-01
H72  4.030387850090E-01 -4.851051980300E-01 -2.389370294483E-01
H73  4.976909631151E-01 -2.142357684195E-01  3.795871429997E-01
H74 -4.976909631151E-01  2.142357684195E-01 -3.795871429997E-01
H75  3.884869074685E-01 -2.283368260332E-01 -4.716523053851E-01
H76 -3.884869074685E-01  2.283368260332E-01  4.716523053851E-01
H77  3.517564005621E-01 -4.202242191696E-01  4.817650907527E-01
H78 -3.517564005621E-01  4.202242191696E-01 -4.817650907527E-01
H79  1.692850360624E-01 -2.592110381139E-01 -4.848182259774E-01
H80 -1.692850360624E-01  2.592110381139E-01  4.848182259774E-01
H81  1.600032403474E-01  4.097111771544E-02  4.391421217431E-01
H82 -1.600032403474E-01 -4.097111771544E-02 -4.391421217431E-01
H83  3.313572830642E-01  7.095514900627E-02  3.536923452983E-01
H84 -3.313572830642E-01 -7.095514900627E-02 -3.536923452983E-01
H85  3.820757313430E-01  6.203908533963E-02  4.518136300755E-01
H86 -3.820757313430E-01 -6.203908533963E-02 -4.518136300755E-01
H87 -3.275772434356E-02 -3.173148060718E-01  2.803433884820E-01
H88  3.275772434356E-02  3.173148060718E-01 -2.803433884820E-01
H89 -5.869175446997E-02 -4.863775815945E-01  4.083263231240E-01
H90  5.869175446997E-02  4.863775815945E-01 -4.083263231240E-01
H91 -2.532530279494E-01 -3.367724853894E-01  4.111819348826E-01
H92  2.532530279494E-01  3.367724853894E-01 -4.111819348826E-01
H93 -8.772900778039E-02 -2.927687439688E-01  4.655643394982E-01
H94  8.772900778039E-02  2.927687439688E-01 -4.655643394982E-01
H95 -1.470042863239E-02  6.396354594522E-03  2.822881781763E-01
H96  1.470042863239E-02 -6.396354594522E-03 -2.822881781763E-01
H97 -8.679092312162E-02  5.382737470667E-03  3.886142470222E-01
H98  8.679092312162E-02 -5.382737470667E-03 -3.886142470222E-01
H99 -2.312305040137E-01 -5.447913106321E-02  3.261822792043E-01
H100  2.312305040137E-01  5.447913106321E-02 -3.261822792043E-01


#===END

data_OPT_STEP_2

_symmetry_space_group_name_H-M 'P 1'
_cell_length_a      7.56500000
_cell_length_b      7.75000000
_cell_length_c     16.83500000
_cell_angle_alpha   89.150000
_cell_angle_beta   78.420000
_cell_angle_gamma   83.630000

loop_
_atom_site_label
_atom_site_fract_x
_atom_site_fract_y
_atom_site_fract_z
SI1  2.493448595214E-01 -2.904816456846E-01  3.224436275997E-01
SI2 -2.493448595214E-01  2.904816456846E-01 -3.224436275997E-01
C3  4.482257824304E-01 -5.990025159616E-02  8.070765783806E-02
C4 -4.482257824304E-01  5.990025159616E-02 -8.070765783806E-02
C5  3.212243725596E-01  4.730830305433E-02  4.536447908629E-02
C6 -3.212243725596E-01 -4.730830305433E-02 -4.536447908629E-02
C7  1.433061074648E-01  9.556105421931E-02  8.781677518228E-02
C8 -1.433061074648E-01 -9.556105421931E-02 -8.781677518228E-02
C9  1.655145340013E-02  1.957502983512E-01  5.312352428602E-02
C10 -1.655145340013E-02 -1.957502983512E-01 -5.312352428602E-02
C11 -1.652349428585E-01  2.421534967832E-01  9.599163355475E-02
C12  1.652349428585E-01 -2.421534967832E-01 -9.599163355475E-02
C13 -2.879864494122E-01  3.376175256404E-01  5.969987348614E-02
C14  2.879864494122E-01 -3.376175256404E-01 -5.969987348614E-02
C15 -2.375795582734E-01  3.937988642756E-01 -2.190255404521E-02
C16  2.375795582734E-01 -3.937988642756E-01  2.190255404521E-02
C17 -6.637186514391E-02  3.526863069028E-01 -6.495426951217E-02
C18  6.637186514391E-02 -3.526863069028E-01  6.495426951217E-02
C19  6.731708049092E-02  2.522266640433E-01 -2.954523364260E-02
C20 -6.731708049092E-02 -2.522266640433E-01  2.954523364260E-02
C21  2.427050265986E-01  2.074567746466E-01 -7.172124734074E-02
C22 -2.427050265986E-01 -2.074567746466E-01  7.172124734074E-02
C23  3.730470135607E-01  1.067052133508E-01 -3.685948599324E-02
C24 -3.730470135607E-01 -1.067052133508E-01  3.685948599324E-02
C25  3.936112273084E-01 -1.258722820083E-01  1.594709192011E-01
C26 -3.936112273084E-01  1.258722820083E-01 -1.594709192011E-01
C27  3.427443853574E-01 -1.874160795025E-01  2.258673705753E-01
C28 -3.427443853574E-01  1.874160795025E-01 -2.258673705753E-01
C29  3.269856933688E-01  4.652439541837E-01  3.124123001999E-01
C30 -3.269856933688E-01 -4.652439541837E-01 -3.124123001999E-01
C31  2.477672578587E-01  3.811047425490E-01  2.472172970177E-01
C32 -2.477672578587E-01 -3.811047425490E-01 -2.472172970177E-01
C33 -4.652078165507E-01  4.272599205339E-01  2.959598078679E-01
C34  4.652078165507E-01 -4.272599205339E-01 -2.959598078679E-01
C35  3.511691847297E-01 -1.904449285117E-01  4.040711446119E-01
C36 -3.511691847297E-01  1.904449285117E-01 -4.040711446119E-01
C37  3.131667838983E-01 -2.801254160515E-01  4.866062538515E-01
C38 -3.131667838983E-01  2.801254160515E-01 -4.866062538515E-01
C39  3.035376320654E-01  6.881332303508E-03  4.123921722254E-01
C40 -3.035376320654E-01 -6.881332303508E-03 -4.123921722254E-01
C41 -9.670738740017E-03 -2.541176980416E-01  3.347723769098E-01
C42  9.670738740017E-03  2.541176980416E-01 -3.347723769098E-01
C43 -1.068781377216E-01 -3.481542176720E-01  4.089498591863E-01
C44  1.068781377216E-01  3.481542176720E-01 -4.089498591863E-01
C45 -8.922972782475E-02 -6.343288517248E-02  3.327335928053E-01
C46  8.922972782475E-02  6.343288517248E-02 -3.327335928053E-01
H47  1.041770713047E-01  4.925050804465E-02  1.490805819530E-01
H48 -1.041770713047E-01 -4.925050804465E-02 -1.490805819530E-01
H49 -2.038037939037E-01  1.970659197737E-01  1.576271848923E-01
H50  2.038037939037E-01 -1.970659197737E-01 -1.576271848923E-01
H51 -4.260515429381E-01  3.695025229525E-01  9.242284235644E-02
H52  4.260515429381E-01 -3.695025229525E-01 -9.242284235644E-02
H53 -3.374206108975E-01  4.707112491670E-01 -4.928935735261E-02
H54  3.374206108975E-01 -4.707112491670E-01  4.928935735261E-02
H55 -2.772526782410E-02  3.970881981502E-01 -1.266657712630E-01
H56  2.772526782410E-02 -3.970881981502E-01  1.266657712630E-01
H57  2.816014935167E-01  2.498442989918E-01 -1.337405403428E-01
H58 -2.816014935167E-01 -2.498442989918E-01  1.337405403428E-01
H59  2.728812897628E-01  4.084067811857E-01  3.712073518015E-01
H60 -2.728812897628E-01 -4.084067811857E-01 -3.712073518015E-01
H61  2.843501329160E-01  4.447534067548E-01  1.887344335248E-01
H62 -2.843501329160E-01 -4.447534067548E-01 -1.887344335248E-01
H63  9.967731829636E-02  3.888599546765E-01  2.626199293849E-01
H64 -9.967731829636E-02 -3.888599546765E-01 -2.626199293849E-01
H65  2.995474790797E-01  2.436325785990E-01  2.385850836132E-01
H66 -2.995474790797E-01 -2.436325785990E-01 -2.385850836132E-01
H67 -4.241509267859E-01  2.871006441128E-01  2.913401043398E-01
H68  4.241509267859E-01 -2.871006441128E-01 -2.913401043398E-01
H69 -4.067295339446E-01  4.768679076824E-01  3.441611030888E-01
H70  4.067295339446E-01 -4.768679076824E-01 -3.441611030888E-01
H71 -4.030387850090E-01  4.851051980300E-01  2.389370294483E-01
H72  4.030387850090E-01 -4.851051980300E-01 -2.389370294483E-01
H73  4.976909631151E-01 -2.142357684195E-01  3.795871429997E-01
H74 -4.976909631151E-01  2.142357684195E-01 -3.795871429997E-01
H75  3.884869074685E-01 -2.283368260332E-01 -4.716523053851E-01
H76 -3.884869074685E-01  2.283368260332E-01  4.716523053851E-01
H77  3.517564005621E-01 -4.202242191696E-01  4.817650907527E-01
H78 -3.517564005621E-01  4.202242191696E-01 -4.817650907527E-01
H79  1.692850360624E-01 -2.592110381139E-01 -4.848182259774E-01
H80 -1.692850360624E-01  2.592110381139E-01  4.848182259774E-01
H81  1.600032403474E-01  4.097111771544E-02  4.391421217431E-01
H82 -1.600032403474E-01 -4.097111771544E-02 -4.391421217431E-01
H83  3.313572830642E-01  7.095514900627E-02  3.536923452983E-01
H84 -3.313572830642E-01 -7.095514900627E-02 -3.536923452983E-01
H85  3.820757313430E-01  6.203908533963E-02  4.518136300755E-01
H86 -3.820757313430E-01 -6.203908533963E-02 -4.518136300755E-01
H87 -3.275772434356E-02 -3.173148060718E-01  2.803433884820E-01
H88  3.275772434356E-02  3.173148060718E-01 -2.803433884820E-01
H89 -5.869175446997E-02 -4.863775815945E-01  4.083263231240E-01
H90  5.869175446997E-02  4.863775815945E-01 -4.083263231240E-01
H91 -2.532530279494E-01 -3.367724853894E-01  4.111819348826E-01
H92  2.532530279494E-01  3.367724853894E-01 -4.111819348826E-01
H93 -8.772900778039E-02 -2.927687439688E-01  4.655643394982E-01
H94  8.772900778039E-02  2.927687439688E-01 -4.655643394982E-01
H95 -1.470042863239E-02  6.396354594522E-03  2.822881781763E-01
H96  1.470042863239E-02 -6.396354594522E-03 -2.822881781763E-01
H97 -8.679092312162E-02  5.382737470667E-03  3.886142470222E-01
H98  8.679092312162E-02 -5.382737470667E-03 -3.886142470222E-01
H99 -2.312305040137E-01 -5.447913106321E-02  3.261822792043E-01
H100  2.312305040137E-01  5.447913106321E-02 -3.261822792043E-01


#===END

data_OPT_STEP_3

_symmetry_space_group_name_H-M 'P 1'
_cell_length_a      7.58518930
_cell_length_b      7.79183327
_cell_length_c     16.90038311
_cell_angle_alpha   89.080122
_cell_angle_beta   78.445997
_cell_angle_gamma   83.471761

loop_
_atom_site_label
_atom_site_fract_x
_atom_site_fract_y
_atom_site_fract_z
SI1  2.500776995421E-01 -2.895355834576E-01  3.219966459709E-01
SI2 -2.500776995421E-01  2.895355834576E-01 -3.219966459709E-01
C3  4.481827826738E-01 -6.026493944074E-02  8.047657827182E-02
C4 -4.481827826738E-01  6.026493944074E-02 -8.047657827182E-02
C5  3.214392496282E-01  4.701063852829E-02  4.516798168415E-02
C6 -3.214392496282E-01 -4.701063852829E-02 -4.516798168415E-02
C7  1.438215649373E-01  9.547229297802E-02  8.741719046121E-02
C8 -1.438215649373E-01 -9.547229297802E-02 -8.741719046121E-02
C9  1.712982619783E-02  1.955056859996E-01  5.285706328461E-02
C10 -1.712982619783E-02 -1.955056859996E-01 -5.285706328461E-02
C11 -1.643346958393E-01  2.420332108513E-01  9.554897424661E-02
C12  1.643346958393E-01 -2.420332108513E-01 -9.554897424661E-02
C13 -2.870721542724E-01  3.372899581687E-01  5.940323102200E-02
C14  2.870721542724E-01 -3.372899581687E-01 -5.940323102200E-02
C15 -2.369532747565E-01  3.933211001572E-01 -2.187987501781E-02
C16  2.369532747565E-01 -3.933211001572E-01  2.187987501781E-02
C17 -6.602510682003E-02  3.522344694981E-01 -6.473593958839E-02
C18  6.602510682003E-02 -3.522344694981E-01  6.473593958839E-02
C19  6.762827108397E-02  2.517804131272E-01 -2.949874510404E-02
C20 -6.762827108397E-02 -2.517804131272E-01  2.949874510404E-02
C21  2.427951846372E-01  2.071498802425E-01 -7.145608422348E-02
C22 -2.427951846372E-01 -2.071498802425E-01  7.145608422348E-02
C23  3.732245309444E-01  1.066671331184E-01 -3.675090065010E-02
C24 -3.732245309444E-01 -1.066671331184E-01  3.675090065010E-02
C25  3.937660832840E-01 -1.259259693665E-01  1.591269368863E-01
C26 -3.937660832840E-01  1.259259693665E-01 -1.591269368863E-01
C27  3.431285018981E-01 -1.870089184322E-01  2.253902986034E-01
C28 -3.431285018981E-01  1.870089184322E-01 -2.253902986034E-01
C29  3.273350559765E-01  4.668390463046E-01  3.122134213440E-01
C30 -3.273350559765E-01 -4.668390463046E-01 -3.122134213440E-01
C31  2.481177113757E-01  3.828051128274E-01  2.474495300985E-01
C32 -2.481177113757E-01 -3.828051128274E-01 -2.474495300985E-01
C33 -4.653851057869E-01  4.281073291662E-01  2.959087792912E-01
C34  4.653851057869E-01 -4.281073291662E-01 -2.959087792912E-01
C35  3.520093868178E-01 -1.902326936229E-01  4.035580571677E-01
C36 -3.520093868178E-01  1.902326936229E-01 -4.035580571677E-01
C37  3.143763005628E-01 -2.795417255023E-01  4.858612256096E-01
C38 -3.143763005628E-01  2.795417255023E-01 -4.858612256096E-01
C39  3.044342594796E-01  6.234803506502E-03  4.120924706924E-01
C40 -3.044342594796E-01 -6.234803506502E-03 -4.120924706924E-01
C41 -8.828693450201E-03 -2.532586271555E-01  3.345387811338E-01
C42  8.828693450201E-03  2.532586271555E-01 -3.345387811338E-01
C43 -1.057187079534E-01 -3.472070129857E-01  4.083676222325E-01
C44  1.057187079534E-01  3.472070129857E-01 -4.083676222325E-01
C45 -8.877273357232E-02 -6.350877730266E-02  3.326511147405E-01
C46  8.877273357232E-02  6.350877730266E-02 -3.326511147405E-01
H47  1.049008403385E-01  4.960513400764E-02  1.484921741864E-01
H48 -1.049008403385E-01 -4.960513400764E-02 -1.484921741864E-01
H49 -2.027404539251E-01  1.971405995725E-01  1.569507269370E-01
H50  2.027404539251E-01 -1.971405995725E-01 -1.569507269370E-01
H51 -4.247534724958E-01  3.696100516369E-01  9.209054418632E-02
H52  4.247534724958E-01 -3.696100516369E-01 -9.209054418632E-02
H53 -3.370017146918E-01  4.699592294452E-01 -4.909485636860E-02
H54  3.370017146918E-01 -4.699592294452E-01  4.909485636860E-02
H55 -2.762129268505E-02  3.965112410317E-01 -1.262041037603E-01
H56  2.762129268505E-02 -3.965112410317E-01  1.262041037603E-01
H57  2.814368736268E-01  2.493552801449E-01 -1.332444456775E-01
H58 -2.814368736268E-01 -2.493552801449E-01  1.332444456775E-01
H59  2.733900396385E-01  4.106025161497E-01  3.708545464300E-01
H60 -2.733900396385E-01 -4.106025161497E-01 -3.708545464300E-01
H61  2.842957837632E-01  4.457326825285E-01  1.890707109424E-01
H62 -2.842957837632E-01 -4.457326825285E-01 -1.890707109424E-01
H63  1.004065968119E-01  3.905920403654E-01  2.628553872507E-01
H64 -1.004065968119E-01 -3.905920403654E-01 -2.628553872507E-01
H65  2.999171893397E-01  2.459392069170E-01  2.390341384862E-01
H66 -2.999171893397E-01 -2.459392069170E-01 -2.390341384862E-01
H67 -4.247420666696E-01  2.885183670858E-01  2.914793445543E-01
H68  4.247420666696E-01 -2.885183670858E-01 -2.914793445543E-01
H69 -4.069248038215E-01  4.772560013036E-01  3.438800779609E-01
H70  4.069248038215E-01 -4.772560013036E-01 -3.438800779609E-01
H71 -4.032138280001E-01  4.852228235179E-01  2.390417794811E-01
H72  4.032138280001E-01 -4.852228235179E-01 -2.390417794811E-01
H73  4.982117352951E-01 -2.139932038612E-01  3.791271920242E-01
H74 -4.982117352951E-01  2.139932038612E-01 -3.791271920242E-01
H75  3.890774409135E-01 -2.280620029415E-01 -4.723688588687E-01
H76 -3.890774409135E-01  2.280620029415E-01  4.723688588687E-01
H77  3.531744906380E-01 -4.189341906971E-01  4.811140357927E-01
H78 -3.531744906380E-01  4.189341906971E-01 -4.811140357927E-01
H79  1.707988740123E-01 -2.588357837810E-01 -4.857397696852E-01
H80 -1.707988740123E-01  2.588357837810E-01  4.857397696852E-01
H81  1.611936771212E-01  4.022065959693E-02  4.386579257771E-01
H82 -1.611936771212E-01 -4.022065959693E-02 -4.386579257771E-01
H83  3.322130277667E-01  7.048098242210E-02  3.537450462725E-01
H84 -3.322130277667E-01 -7.048098242210E-02 -3.537450462725E-01
H85  3.824705935300E-01  6.067183666812E-02  4.516203891733E-01
H86 -3.824705935300E-01 -6.067183666812E-02 -4.516203891733E-01
H87 -3.189916287829E-02 -3.158690287502E-01  2.803092834249E-01
H88  3.189916287829E-02  3.158690287502E-01 -2.803092834249E-01
H89 -5.738256847920E-02 -4.847753088124E-01  4.076786058593E-01
H90  5.738256847920E-02  4.847753088124E-01 -4.076786058593E-01
H91 -2.518347311030E-01 -3.359490286095E-01  4.106096970071E-01
H92  2.518347311030E-01  3.359490286095E-01 -4.106096970071E-01
H93 -8.682062398711E-02 -2.924962268556E-01  4.648403806804E-01
H94  8.682062398711E-02  2.924962268556E-01 -4.648403806804E-01
H95 -1.455183550789E-02  6.287060337126E-03  2.825702904503E-01
H96  1.455183550789E-02 -6.287060337126E-03 -2.825702904503E-01
H97 -8.676908790047E-02  4.566848686676E-03  3.884024444470E-01
H98  8.676908790047E-02 -4.566848686676E-03 -3.884024444470E-01
H99 -2.303167308026E-01 -5.448151626355E-02  3.259885829670E-01
H100  2.303167308026E-01  5.448151626355E-02 -3.259885829670E-01


#===END

data_OPT_STEP_4

_symmetry_space_group_name_H-M 'P 1'
_cell_length_a      7.61037678
_cell_length_b      7.87572312
_cell_length_c     16.99065272
_cell_angle_alpha   88.850612
_cell_angle_beta   78.478091
_cell_angle_gamma   83.159198

loop_
_atom_site_label
_atom_site_fract_x
_atom_site_fract_y
_atom_site_fract_z
SI1  2.525355419631E-01 -2.866390439457E-01  3.209102729721E-01
SI2 -2.525355419631E-01  2.866390439457E-01 -3.209102729721E-01
C3  4.491577267925E-01 -5.840299674050E-02  8.052154025828E-02
C4 -4.491577267925E-01  5.840299674050E-02 -8.052154025828E-02
C5  3.223790648185E-01  4.758697149740E-02  4.508661743660E-02
C6 -3.223790648185E-01 -4.758697149740E-02 -4.508661743660E-02
C7  1.450376449236E-01  9.531208510656E-02  8.692291283577E-02
C8 -1.450376449236E-01 -9.531208510656E-02 -8.692291283577E-02
C9  1.858347177330E-02  1.955310172932E-01  5.266806351655E-02
C10 -1.858347177330E-02 -1.955310172932E-01 -5.266806351655E-02
C11 -1.623875467331E-01  2.418247648259E-01  9.509717089819E-02
C12  1.623875467331E-01 -2.418247648259E-01 -9.509717089819E-02
C13 -2.848900555338E-01  3.372376748877E-01  5.922079751120E-02
C14  2.848900555338E-01 -3.372376748877E-01 -5.922079751120E-02
C15 -2.350527146407E-01  3.935749334952E-01 -2.156205610433E-02
C16  2.350527146407E-01 -3.935749334952E-01  2.156205610433E-02
C17 -6.477779192456E-02  3.521512888932E-01 -6.425072775514E-02
C18  6.477779192456E-02 -3.521512888932E-01  6.425072775514E-02
C19  6.895524330717E-02  2.525600214201E-01 -2.908148689912E-02
C20 -6.895524330717E-02 -2.525600214201E-01  2.908148689912E-02
C21  2.434688973985E-01  2.075446242240E-01 -7.084766345412E-02
C22 -2.434688973985E-01 -2.075446242240E-01  7.084766345412E-02
C23  3.732517688510E-01  1.056483074982E-01 -3.671311396066E-02
C24 -3.732517688510E-01 -1.056483074982E-01  3.671311396066E-02
C25  3.949302804737E-01 -1.241781010767E-01  1.587177788525E-01
C26 -3.949302804737E-01  1.241781010767E-01 -1.587177788525E-01
C27  3.446350725586E-01 -1.848717682702E-01  2.245996195784E-01
C28 -3.446350725586E-01  1.848717682702E-01 -2.245996195784E-01
C29  3.293029319813E-01  4.718738040636E-01  3.114843438736E-01
C30 -3.293029319813E-01 -4.718738040636E-01 -3.114843438736E-01
C31  2.497122265109E-01  3.888835859505E-01  2.474530901216E-01
C32 -2.497122265109E-01 -3.888835859505E-01 -2.474530901216E-01
C33 -4.640550867061E-01  4.319922904289E-01  2.952273998922E-01
C34  4.640550867061E-01 -4.319922904289E-01 -2.952273998922E-01
C35  3.544366564241E-01 -1.895203852857E-01  4.020903986685E-01
C36 -3.544366564241E-01  1.895203852857E-01 -4.020903986685E-01
C37  3.170538399391E-01 -2.786700545411E-01  4.839002597394E-01
C38 -3.170538399391E-01  2.786700545411E-01 -4.839002597394E-01
C39  3.064157944752E-01  4.973774352563E-03  4.109672070064E-01
C40 -3.064157944752E-01 -4.973774352563E-03 -4.109672070064E-01
C41 -5.840489118338E-03 -2.504652590594E-01  3.337664550402E-01
C42  5.840489118338E-03  2.504652590594E-01 -3.337664550402E-01
C43 -1.018049313818E-01 -3.444319851360E-01  4.070540178488E-01
C44  1.018049313818E-01  3.444319851360E-01 -4.070540178488E-01
C45 -8.640666574318E-02 -6.247948988571E-02  3.323214281309E-01
C46  8.640666574318E-02  6.247948988571E-02 -3.323214281309E-01
H47  1.060110574454E-01  4.844517304210E-02  1.474498931129E-01
H48 -1.060110574454E-01 -4.844517304210E-02 -1.474498931129E-01
H49 -2.004647551075E-01  1.972088910865E-01  1.561971817713E-01
H50  2.004647551075E-01 -1.972088910865E-01 -1.561971817713E-01
H51 -4.226516578603E-01  3.682205103298E-01  9.146974041413E-02
H52  4.226516578603E-01 -3.682205103298E-01 -9.146974041413E-02
H53 -3.352342238947E-01  4.702662176054E-01 -4.844994493308E-02
H54  3.352342238947E-01 -4.702662176054E-01  4.844994493308E-02
H55 -2.680770187548E-02  3.959120235489E-01 -1.254661200149E-01
H56  2.680770187548E-02 -3.959120235489E-01  1.254661200149E-01
H57  2.822239909056E-01  2.508038157400E-01 -1.320981229939E-01
H58 -2.822239909056E-01 -2.508038157400E-01  1.320981229939E-01
H59  2.756155640275E-01  4.167482472654E-01  3.699905177707E-01
H60 -2.756155640276E-01 -4.167482472654E-01 -3.699905177707E-01
H61  2.857185094521E-01  4.503929071065E-01  1.891212006909E-01
H62 -2.857185094521E-01 -4.503929071065E-01 -1.891212006909E-01
H63  1.024176299619E-01  3.975760954835E-01  2.628872485536E-01
H64 -1.024176299619E-01 -3.975760954835E-01 -2.628872485536E-01
H65  3.009919541169E-01  2.530918120254E-01  2.395964542501E-01
H66 -3.009919541169E-01 -2.530918120254E-01 -2.395964542501E-01
H67 -4.240918269346E-01  2.935891062544E-01  2.913691297324E-01
H68  4.240918269346E-01 -2.935891062544E-01 -2.913691297324E-01
H69 -4.053396083767E-01  4.805824011034E-01  3.426843429697E-01
H70  4.053396083767E-01 -4.805824011034E-01 -3.426843429697E-01
H71 -4.020414884157E-01  4.875018611567E-01  2.383889149993E-01
H72  4.020414884157E-01 -4.875018611567E-01 -2.383889149993E-01
H73 -4.997499219651E-01 -2.131519404598E-01  3.777510337549E-01
H74  4.997499219651E-01  2.131519404598E-01 -3.777510337549E-01
H75  3.903684011726E-01 -2.278535594550E-01 -4.741520972216E-01
H76 -3.903684011726E-01  2.278535594550E-01  4.741520972216E-01
H77  3.567948703152E-01 -4.166028534558E-01  4.792151506293E-01
H78 -3.567948703152E-01  4.166028534558E-01 -4.792151506293E-01
H79  1.736450271683E-01 -2.587147203148E-01 -4.881654825054E-01
H80 -1.736450271683E-01  2.587147203148E-01  4.881654825054E-01
H81  1.632859737484E-01  3.858956495756E-02  4.369842884633E-01
H82 -1.632859737484E-01 -3.858956495756E-02 -4.369842884633E-01
H83  3.348019181411E-01  6.971996470900E-02  3.531621815774E-01
H84 -3.348019181411E-01 -6.971996470900E-02 -3.531621815774E-01
H85  3.831968964630E-01  5.770349894929E-02  4.509387782583E-01
H86 -3.831968964630E-01 -5.770349894929E-02 -4.509387782583E-01
H87 -2.883847564154E-02 -3.115566089580E-01  2.797485198976E-01
H88  2.883847564154E-02  3.115566089580E-01 -2.797485198976E-01
H89 -5.270314458191E-02 -4.806163856066E-01  4.062853090592E-01
H90  5.270314458191E-02  4.806163856066E-01 -4.062853090592E-01
H91 -2.475273312018E-01 -3.335911110126E-01  4.092052468241E-01
H92  2.475273312018E-01  3.335911110126E-01 -4.092052468241E-01
H93 -8.350601516027E-02 -2.908611371586E-01  4.633321835506E-01
H94  8.350601516027E-02  2.908611371586E-01 -4.633321835506E-01
H95 -1.288351463863E-02  7.363189727735E-03  2.826883510840E-01
H96  1.288351463863E-02 -7.363189727735E-03 -2.826883510840E-01
H97 -8.457896378906E-02  3.842500890000E-03  3.879465643336E-01
H98  8.457896378906E-02 -3.842500890000E-03 -3.879465643336E-01
H99 -2.275569852581E-01 -5.313720763261E-02  3.257003964209E-01
H100  2.275569852581E-01  5.313720763261E-02 -3.257003964209E-01


#===END

data_OPT_STEP_5

_symmetry_space_group_name_H-M 'P 1'
_cell_length_a      7.67774128
_cell_length_b      8.05157394
_cell_length_c     17.13846626
_cell_angle_alpha   88.330482
_cell_angle_beta   78.372524
_cell_angle_gamma   82.493921

loop_
_atom_site_label
_atom_site_fract_x
_atom_site_fract_y
_atom_site_fract_z
SI1  2.561638200080E-01 -2.831523196445E-01  3.194682379660E-01
SI2 -2.561638200080E-01  2.831523196445E-01 -3.194682379660E-01
C3  4.482011589103E-01 -6.217833017528E-02  7.930920912697E-02
C4 -4.482011589103E-01  6.217833017528E-02 -7.930920912697E-02
C5  3.222826230169E-01  4.317139139396E-02  4.406242419040E-02
C6 -3.222826230169E-01 -4.317139139396E-02 -4.406242419040E-02
C7  1.462952822713E-01  9.112552711135E-02  8.563981150520E-02
C8 -1.462952822713E-01 -9.112552711135E-02 -8.563981150520E-02
C9  1.932492501385E-02  1.881187078998E-01  5.129103018449E-02
C10 -1.932492501385E-02 -1.881187078998E-01 -5.129103018449E-02
C11 -1.609443668350E-01  2.326984776847E-01  9.316149347885E-02
C12  1.609443668350E-01 -2.326984776847E-01 -9.316149347885E-02
C13 -2.818155640394E-01  3.307345385446E-01  5.817216916653E-02
C14  2.818155640394E-01 -3.307345385446E-01 -5.817216916653E-02
C15 -2.322058710344E-01  3.880381930134E-01 -2.179819853988E-02
C16  2.322058710344E-01 -3.880381930134E-01  2.179819853988E-02
C17 -6.229705214687E-02  3.491078538834E-01 -6.376654486439E-02
C18  6.229705214687E-02 -3.491078538834E-01  6.376654486439E-02
C19  6.927019025435E-02  2.454544514496E-01 -2.972366424995E-02
C20 -6.927019025435E-02 -2.454544514496E-01  2.972366424995E-02
C21  2.427536543826E-01  2.007947103698E-01 -7.109459085984E-02
C22 -2.427536543826E-01 -2.007947103698E-01  7.109459085984E-02
C23  3.739169416390E-01  1.046865802326E-01 -3.643984917623E-02
C24 -3.739169416390E-01 -1.046865802326E-01  3.643984917623E-02
C25  3.949224116324E-01 -1.263310362984E-01  1.572320321599E-01
C26 -3.949224116324E-01  1.263310362984E-01 -1.572320321599E-01
C27  3.456373594828E-01 -1.847309819326E-01  2.229623286263E-01
C28 -3.456373594828E-01  1.847309819326E-01 -2.229623286263E-01
C29  3.317952443359E-01  4.797009556935E-01  3.112253068064E-01
C30 -3.317952443359E-01 -4.797009556935E-01 -3.112253068064E-01
C31  2.524093602234E-01  3.984225819518E-01  2.485264961441E-01
C32 -2.524093602234E-01 -3.984225819518E-01 -2.485264961441E-01
C33 -4.631325152662E-01  4.374335520605E-01  2.951851763467E-01
C34  4.631325152662E-01 -4.374335520605E-01 -2.951851763467E-01
C35  3.582696579705E-01 -1.896431074825E-01  3.994854851178E-01
C36 -3.582696579705E-01  1.896431074825E-01 -3.994854851178E-01
C37  3.201745499218E-01 -2.768562959372E-01  4.809376158764E-01
C38 -3.201745499218E-01  2.768562959372E-01 -4.809376158764E-01
C39  3.108851701921E-01  1.106310076234E-03  4.082216701481E-01
C40 -3.108851701921E-01 -1.106310076234E-03 -4.082216701481E-01
C41 -8.485977375114E-04 -2.467767236542E-01  3.334437963619E-01
C42  8.485977375114E-04  2.467767236542E-01 -3.334437963619E-01
C43 -9.526452983978E-02 -3.399534842910E-01  4.061244585881E-01
C44  9.526452983978E-02  3.399534842910E-01 -4.061244585881E-01
C45 -8.215117822242E-02 -6.228302529025E-02  3.326052643736E-01
C46  8.215117822242E-02  6.228302529025E-02 -3.326052643736E-01
H47  1.090973093294E-01  4.808008382713E-02  1.464279986711E-01
H48 -1.090973093294E-01 -4.808008382713E-02 -1.464279986711E-01
H49 -1.994703665994E-01  1.859060686024E-01  1.533150578669E-01
H50  1.994703665994E-01 -1.859060686024E-01 -1.533150578669E-01
H51 -4.179190546836E-01  3.647010421503E-01  9.064226216149E-02
H52  4.179190546836E-01 -3.647010421503E-01 -9.064226216149E-02
H53 -3.320781113525E-01  4.661340220327E-01 -4.774588253971E-02
H54  3.320781113525E-01 -4.661340220327E-01  4.774588253971E-02
H55 -2.298664482544E-02  3.977726706545E-01 -1.235343515826E-01
H56  2.298664482544E-02 -3.977726706545E-01  1.235343515826E-01
H57  2.800992505521E-01  2.408534295235E-01 -1.324074040814E-01
H58 -2.800992505521E-01 -2.408534295235E-01  1.324074040814E-01
H59  2.781067116203E-01  4.273315256184E-01  3.697229266425E-01
H60 -2.781067116203E-01 -4.273315256184E-01 -3.697229266425E-01
H61  2.888356169572E-01  4.566516909320E-01  1.900372791238E-01
H62 -2.888356169572E-01 -4.566516909320E-01 -1.900372791238E-01
H63  1.061370360729E-01  4.091870296953E-01  2.638759308457E-01
H64 -1.061370360729E-01 -4.091870296953E-01 -2.638759308457E-01
H65  3.024762557554E-01  2.647501293454E-01  2.420655562247E-01
H66 -3.024762557554E-01 -2.647501293454E-01 -2.420655562247E-01
H67 -4.245572940111E-01  3.014485938802E-01  2.929615994838E-01
H68  4.245572940111E-01 -3.014485938802E-01 -2.929615994838E-01
H69 -4.044313163327E-01  4.857217245230E-01  3.415580165212E-01
H70  4.044313163327E-01 -4.857217245230E-01 -3.415580165212E-01
H71 -4.010787008776E-01  4.888584527152E-01  2.380400024755E-01
H72  4.010787008776E-01 -4.888584527152E-01 -2.380400024755E-01
H73 -4.968863681284E-01 -2.142378161040E-01  3.753528205241E-01
H74  4.968863681284E-01  2.142378161040E-01 -3.753528205241E-01
H75  3.909976921635E-01 -2.273192528369E-01 -4.770110859220E-01
H76 -3.909976921635E-01  2.273192528369E-01  4.770110859220E-01
H77  3.605395828320E-01 -4.120526557777E-01  4.769879771709E-01
H78 -3.605395828320E-01  4.120526557777E-01 -4.769879771709E-01
H79  1.773067138392E-01 -2.568922547410E-01 -4.919342535245E-01
H80 -1.773067138392E-01  2.568922547410E-01  4.919342535245E-01
H81  1.682710433631E-01  3.537434115362E-02  4.331317369642E-01
H82 -1.682710433631E-01 -3.537434115362E-02 -4.331317369642E-01
H83  3.414100798749E-01  6.574026064686E-02  3.510778087463E-01
H84 -3.414100798749E-01 -6.574026064686E-02 -3.510778087463E-01
H85  3.852895739049E-01  5.025354224335E-02  4.489280728059E-01
H86 -3.852895739049E-01 -5.025354224335E-02 -4.489280728059E-01
H87 -2.376577633549E-02 -3.050208397088E-01  2.798776239506E-01
H88  2.376577633549E-02  3.050208397088E-01 -2.798776239506E-01
H89 -4.454737741409E-02 -4.732519458481E-01  4.057260738225E-01
H90  4.454737741409E-02  4.732519458481E-01 -4.057260738225E-01
H91 -2.398256551123E-01 -3.302116151968E-01  4.078997030207E-01
H92  2.398256551123E-01  3.302116151968E-01 -4.078997030207E-01
H93 -7.903834972186E-02 -2.876765921518E-01  4.620101325936E-01
H94  7.903834972186E-02  2.876765921518E-01 -4.620101325936E-01
H95 -9.717153603713E-03  7.263524097394E-03  2.836246485497E-01
H96  9.717153603713E-03 -7.263524097394E-03 -2.836246485497E-01
H97 -8.087145569324E-02  7.260531984414E-04  3.880267574610E-01
H98  8.087145569324E-02 -7.260531984413E-04 -3.880267574610E-01
H99 -2.222066832743E-01 -5.202322907285E-02  3.260768537022E-01
H100  2.222066832743E-01  5.202322907285E-02 -3.260768537022E-01


#===END

data_OPT_STEP_6

_symmetry_space_group_name_H-M 'P 1'
_cell_length_a      7.74040099
_cell_length_b      8.20997907
_cell_length_c     17.19057048
_cell_angle_alpha   87.834993
_cell_angle_beta   78.055346
_cell_angle_gamma   81.804360

loop_
_atom_site_label
_atom_site_fract_x
_atom_site_fract_y
_atom_site_fract_z
SI1  2.577276769915E-01 -2.808250383293E-01  3.197139452533E-01
SI2 -2.577276769915E-01  2.808250383293E-01 -3.197139452533E-01
C3  4.455462588582E-01 -6.887415688165E-02  7.783342332922E-02
C4 -4.455462588582E-01  6.887415688165E-02 -7.783342332922E-02
C5  3.232271624930E-01  4.390245446181E-02  4.430638543803E-02
C6 -3.232271624930E-01 -4.390245446181E-02 -4.430638543803E-02
C7  1.482203068447E-01  9.298413468501E-02  8.614480362523E-02
C8 -1.482203068447E-01 -9.298413468501E-02 -8.614480362523E-02
C9  2.387336703247E-02  1.952341090835E-01  5.297362645931E-02
C10 -2.387336703247E-02 -1.952341090835E-01 -5.297362645931E-02
C11 -1.566404431195E-01  2.375234383376E-01  9.436620166135E-02
C12  1.566404431195E-01 -2.375234383376E-01 -9.436620166135E-02
C13 -2.785513364891E-01  3.297631986813E-01  5.843815569126E-02
C14  2.785513364891E-01 -3.297631986813E-01 -5.843815569126E-02
C15 -2.258405577546E-01  3.954171660554E-01 -1.988158803678E-02
C16  2.258405577546E-01 -3.954171660554E-01  1.988158803678E-02
C17 -5.456254142269E-02  3.621353462972E-01 -6.076944219138E-02
C18  5.456254142269E-02 -3.621353462972E-01  6.076944219138E-02
C19  7.560391822882E-02  2.569448650679E-01 -2.711630028993E-02
C20 -7.560391822882E-02 -2.569448650679E-01  2.711630028993E-02
C21  2.502105868292E-01  2.170404904331E-01 -6.756972671880E-02
C22 -2.502105868292E-01 -2.170404904331E-01  6.756972671880E-02
C23  3.780288431016E-01  1.135248569343E-01 -3.447077242069E-02
C24 -3.780288431016E-01 -1.135248569343E-01  3.447077242069E-02
C25  3.929648427392E-01 -1.299840657073E-01  1.562325342538E-01
C26 -3.929648427392E-01  1.299840657073E-01 -1.562325342538E-01
C27  3.445263481280E-01 -1.857084454188E-01  2.224658156882E-01
C28 -3.445263481280E-01  1.857084454188E-01 -2.224658156882E-01
C29  3.343591315515E-01  4.859143384380E-01  3.119553122714E-01
C30 -3.343591315515E-01 -4.859143384380E-01 -3.119553122714E-01
C31  2.561270009267E-01  4.064688171611E-01  2.498576789350E-01
C32 -2.561270009267E-01 -4.064688171611E-01 -2.498576789350E-01
C33 -4.615946979161E-01  4.431534152461E-01  2.956003324202E-01
C34  4.615946979161E-01 -4.431534152461E-01 -2.956003324202E-01
C35  3.598028356911E-01 -1.897675035677E-01  3.987575375913E-01
C36 -3.598028356911E-01  1.897675035677E-01 -3.987575375913E-01
C37  3.206608721100E-01 -2.742618003333E-01  4.806209672583E-01
C38 -3.206608721100E-01  2.742618003333E-01 -4.806209672583E-01
C39  3.137727386702E-01 -1.994990061398E-03  4.066164080073E-01
C40 -3.137727386702E-01  1.994990061398E-03 -4.066164080073E-01
C41  1.592416260880E-03 -2.439478930394E-01  3.348818656812E-01
C42 -1.592416260880E-03  2.439478930394E-01 -3.348818656812E-01
C43 -9.203672273039E-02 -3.358449555757E-01  4.075970218669E-01
C44  9.203672273039E-02  3.358449555757E-01 -4.075970218669E-01
C45 -8.042412247197E-02 -6.236643763702E-02  3.342906707960E-01
C46  8.042412247197E-02  6.236643763702E-02 -3.342906707960E-01
H47  1.093848764490E-01  4.595904123927E-02  1.459948409084E-01
H48 -1.093848764490E-01 -4.595904123927E-02 -1.459948409084E-01
H49 -1.957665009381E-01  1.895846819607E-01  1.541575183218E-01
H50  1.957665009381E-01 -1.895846819607E-01 -1.541575183218E-01
H51 -4.160228574053E-01  3.581152674967E-01  8.974840618218E-02
H52  4.160228574053E-01 -3.581152674967E-01 -8.974840618218E-02
H53 -3.257174329655E-01  4.722824086307E-01 -4.580730041226E-02
H54  3.257174329655E-01 -4.722824086307E-01  4.580730041226E-02
H55 -1.414879918741E-02  4.133342360211E-01 -1.199002753750E-01
H56  1.414879918741E-02 -4.133342360211E-01  1.199002753750E-01
H57  2.900786116312E-01  2.636960660167E-01 -1.275569942250E-01
H58 -2.900786116312E-01 -2.636960660167E-01  1.275569942250E-01
H59  2.812191538800E-01  4.348923882200E-01  3.706217486950E-01
H60 -2.812191538800E-01 -4.348923882200E-01 -3.706217486950E-01
H61  2.921892741888E-01  4.634340344318E-01  1.912563176260E-01
H62 -2.921892741888E-01 -4.634340344318E-01 -1.912563176260E-01
H63  1.107355707330E-01  4.177596682530E-01  2.653884614852E-01
H64 -1.107355707330E-01 -4.177596682530E-01 -2.653884614852E-01
H65  3.066350691599E-01  2.750313006449E-01  2.437978395022E-01
H66 -3.066350691599E-01 -2.750313006449E-01 -2.437978395022E-01
H67 -4.225936641588E-01  3.095185660422E-01  2.941775204854E-01
H68  4.225936641588E-01 -3.095185660422E-01 -2.941775204854E-01
H69 -4.033127869184E-01  4.910044291267E-01  3.412863780492E-01
H70  4.033127869184E-01 -4.910044291267E-01 -3.412863780492E-01
H71 -4.003066910761E-01  4.924088890363E-01  2.380524056031E-01
H72  4.003066910761E-01 -4.924088890363E-01 -2.380524056031E-01
H73 -4.960667030921E-01 -2.159892740475E-01  3.746950613611E-01
H74  4.960667030921E-01  2.159892740475E-01 -3.746950613611E-01
H75  3.905216458923E-01 -2.261118420198E-01 -4.777037506764E-01
H76 -3.905216458923E-01  2.261118420198E-01  4.777037506764E-01
H77  3.605294188035E-01 -4.073273411304E-01  4.775513617526E-01
H78 -3.605294188035E-01  4.073273411304E-01 -4.775513617526E-01
H79  1.784249389761E-01 -2.527837128782E-01 -4.923491762598E-01
H80 -1.784249389761E-01  2.527837128782E-01  4.923491762598E-01
H81  1.718169272127E-01  3.404899568331E-02  4.310944549774E-01
H82 -1.718169272127E-01 -3.404899568331E-02 -4.310944549774E-01
H83  3.458976865637E-01  6.105506615349E-02  3.493683034132E-01
H84 -3.458976865637E-01 -6.105506615349E-02 -3.493683034132E-01
H85  3.870258956139E-01  4.453443141656E-02  4.473476045343E-01
H86 -3.870258956139E-01 -4.453443141656E-02 -4.473476045343E-01
H87 -2.098383850712E-02 -2.998966926093E-01  2.815053598272E-01
H88  2.098383850712E-02  2.998966926093E-01 -2.815053598272E-01
H89 -3.957546490082E-02 -4.665950233636E-01  4.078333669876E-01
H90  3.957546490082E-02  4.665950233636E-01 -4.078333669876E-01
H91 -2.354756989309E-01 -3.271223941421E-01  4.089594480364E-01
H92  2.354756989309E-01  3.271223941421E-01 -4.089594480364E-01
H93 -7.839877226301E-02 -2.839548921857E-01  4.633220825247E-01
H94  7.839877226301E-02  2.839548921857E-01 -4.633220825247E-01
H95 -8.507670718393E-03  6.568142348295E-03  2.855233654457E-01
H96  8.507670718393E-03 -6.568142348295E-03 -2.855233654457E-01
H97 -8.014638903162E-02 -1.825060856690E-03  3.897225317945E-01
H98  8.014638903162E-02  1.825060856690E-03 -3.897225317945E-01
H99 -2.194672505137E-01 -5.115817989674E-02  3.278137544482E-01
H100  2.194672505137E-01  5.115817989674E-02 -3.278137544482E-01


#===END

data_OPT_STEP_7

_symmetry_space_group_name_H-M 'P 1'
_cell_length_a      7.75808089
_cell_length_b      8.23679134
_cell_length_c     17.22438734
_cell_angle_alpha   87.688473
_cell_angle_beta   77.934227
_cell_angle_gamma   81.740312

loop_
_atom_site_label
_atom_site_fract_x
_atom_site_fract_y
_atom_site_fract_z
SI1  2.583661890540E-01 -2.801408976060E-01  3.194933919409E-01
SI2 -2.583661890540E-01  2.801408976060E-01 -3.194933919409E-01
C3  4.461415112444E-01 -6.707981728980E-02  7.805938527254E-02
C4 -4.461415112444E-01  6.707981728980E-02 -7.805938527254E-02
C5  3.232070035886E-01  4.338487210527E-02  4.418430562409E-02
C6 -3.232070035886E-01 -4.338487210527E-02 -4.418430562409E-02
C7  1.475769994820E-01  9.019847882848E-02  8.562684174066E-02
C8 -1.475769994820E-01 -9.019847882848E-02 -8.562684174066E-02
C9  2.358686795011E-02  1.925497660909E-01  5.256135778696E-02
C10 -2.358686795011E-02 -1.925497660909E-01 -5.256135778696E-02
C11 -1.564229897538E-01  2.356144688767E-01  9.410539427918E-02
C12  1.564229897538E-01 -2.356144688767E-01 -9.410539427918E-02
C13 -2.781131937815E-01  3.275413522980E-01  5.820738959883E-02
C14  2.781131937815E-01 -3.275413522980E-01 -5.820738959883E-02
C15 -2.257989235702E-01  3.919425853513E-01 -2.023039343128E-02
C16  2.257989235702E-01 -3.919425853513E-01  2.023039343128E-02
C17 -5.572134038079E-02  3.559422181344E-01 -6.161042286394E-02
C18  5.572134038079E-02 -3.559422181344E-01  6.161042286394E-02
C19  7.498563673596E-02  2.531524473540E-01 -2.763900797800E-02
C20 -7.498563673596E-02 -2.531524473540E-01  2.763900797800E-02
C21  2.496924202462E-01  2.142047208076E-01 -6.792395085396E-02
C22 -2.496924202462E-01 -2.142047208076E-01  6.792395085396E-02
C23  3.772403978366E-01  1.106811574269E-01 -3.491280189929E-02
C24 -3.772403978366E-01 -1.106811574269E-01  3.491280189929E-02
C25  3.933449116200E-01 -1.286721368204E-01  1.562728928879E-01
C26 -3.933449116200E-01  1.286721368204E-01 -1.562728928879E-01
C27  3.447837051359E-01 -1.846460917718E-01  2.224201380192E-01
C28 -3.447837051359E-01  1.846460917718E-01 -2.224201380192E-01
C29  3.353487036382E-01  4.872542996835E-01  3.114456568867E-01
C30 -3.353487036382E-01 -4.872542996835E-01 -3.114456568867E-01
C31  2.575263065003E-01  4.085959828269E-01  2.493945599549E-01
C32 -2.575263065003E-01 -4.085959828269E-01 -2.493945599549E-01
C33 -4.609181944064E-01  4.447762096134E-01  2.950142875024E-01
C34  4.609181944064E-01 -4.447762096134E-01 -2.950142875024E-01
C35  3.601774424675E-01 -1.900617226607E-01  3.984120100147E-01
C36 -3.601774424675E-01  1.900617226607E-01 -3.984120100147E-01
C37  3.206624090044E-01 -2.748142341425E-01  4.801414201752E-01
C38 -3.206624090044E-01  2.748142341425E-01 -4.801414201752E-01
C39  3.146169702254E-01 -2.790152645758E-03  4.062825073754E-01
C40 -3.146169702254E-01  2.790152645758E-03 -4.062825073754E-01
C41  2.512947901511E-03 -2.432570116458E-01  3.349046619390E-01
C42 -2.512947901511E-03  2.432570116458E-01 -3.349046619390E-01
C43 -9.118317071245E-02 -3.351988497626E-01  4.075196022091E-01
C44  9.118317071245E-02  3.351988497626E-01 -4.075196022091E-01
C45 -7.940445186749E-02 -6.210649887488E-02  3.344234780501E-01
C46  7.940445186749E-02  6.210649887488E-02 -3.344234780501E-01
H47  1.081552871708E-01  4.167086764480E-02  1.451099982926E-01
H48 -1.081552871708E-01 -4.167086764480E-02 -1.451099982926E-01
H49 -1.953965523130E-01  1.882700439383E-01  1.539404182279E-01
H50  1.953965523130E-01 -1.882700439383E-01 -1.539404182279E-01
H51 -4.148050111803E-01  3.577233322086E-01  8.982425816239E-02
H52  4.148050111803E-01 -3.577233322086E-01 -8.982425816239E-02
H53 -3.250428816952E-01  4.700497346488E-01 -4.580890851493E-02
H54  3.250428816952E-01 -4.700497346488E-01  4.580890851493E-02
H55 -1.616078895486E-02  4.045432793791E-01 -1.211382986364E-01
H56  1.616078895486E-02 -4.045432793791E-01  1.211382986364E-01
H57  2.898874086603E-01  2.616710256885E-01 -1.276876740238E-01
H58 -2.898874086603E-01 -2.616710256885E-01  1.276876740238E-01
H59  2.823246625117E-01  4.358195172794E-01  3.699771080221E-01
H60 -2.823246625117E-01 -4.358195172794E-01 -3.699771080221E-01
H61  2.934741355484E-01  4.661145981580E-01  1.909862367894E-01
H62 -2.934741355484E-01 -4.661145981580E-01 -1.909862367894E-01
H63  1.124027793772E-01  4.196217952057E-01  2.649559562100E-01
H64 -1.124027793772E-01 -4.196217952057E-01 -2.649559562100E-01
H65  3.081867603806E-01  2.776409972775E-01  2.431427475676E-01
H66 -3.081867603806E-01 -2.776409972775E-01 -2.431427475676E-01
H67 -4.217552872753E-01  3.115885650859E-01  2.936029303614E-01
H68  4.217552872753E-01 -3.115885650859E-01 -2.936029303614E-01
H69 -4.028043837279E-01  4.923674612629E-01  3.405366914547E-01
H70  4.028043837279E-01 -4.923674612629E-01 -3.405366914547E-01
H71 -3.998222678766E-01  4.941223704131E-01  2.375185192743E-01
H72  3.998222678766E-01 -4.941223704131E-01 -2.375185192743E-01
H73 -4.959157700495E-01 -2.163849727904E-01  3.743913151304E-01
H74  4.959157700495E-01  2.163849727904E-01 -3.743913151304E-01
H75  3.904506041082E-01 -2.272695589912E-01 -4.783237523197E-01
H76 -3.904506041082E-01  2.272695589912E-01  4.783237523197E-01
H77  3.602626704501E-01 -4.075286964024E-01  4.770490196585E-01
H78 -3.602626704501E-01  4.075286964024E-01 -4.770490196585E-01
H79  1.786790725384E-01 -2.531854894384E-01 -4.927976589304E-01
H80 -1.786790725384E-01  2.531854894384E-01  4.927976589304E-01
H81  1.729102554936E-01  3.351040779577E-02  4.306725892049E-01
H82 -1.729102554936E-01 -3.351040779577E-02 -4.306725892049E-01
H83  3.471946524078E-01  6.028996194062E-02  3.491365082798E-01
H84 -3.471946524078E-01 -6.028996194062E-02 -3.491365082798E-01
H85  3.876077473697E-01  4.300332964299E-02  4.469984673455E-01
H86 -3.876077473697E-01 -4.300332964299E-02 -4.469984673455E-01
H87 -1.994833397569E-02 -2.985709577047E-01  2.815865064077E-01
H88  1.994833397569E-02  2.985709577047E-01 -2.815865064077E-01
H89 -3.861293926913E-02 -4.655451514640E-01  4.078671962162E-01
H90  3.861293926913E-02  4.655451514640E-01 -4.078671962162E-01
H91 -2.342712662853E-01 -3.266270987993E-01  4.088300266815E-01
H92  2.342712662853E-01  3.266270987993E-01 -4.088300266815E-01
H93 -7.805964411513E-02 -2.834815626782E-01  4.631452207396E-01
H94  7.805964411513E-02  2.834815626782E-01 -4.631452207396E-01
H95 -7.451139384661E-03  6.970141229748E-03  2.858018248801E-01
H96  7.451139384661E-03 -6.970141229748E-03 -2.858018248801E-01
H97 -7.940526255344E-02 -2.186090552538E-03  3.898255226229E-01
H98  7.940526255344E-02  2.186090552538E-03 -3.898255226229E-01
H99 -2.181266032087E-01 -5.069510013119E-02  3.279479879666E-01
H100  2.181266032087E-01  5.069510013119E-02 -3.279479879666E-01


#===END

data_OPT_STEP_8

_symmetry_space_group_name_H-M 'P 1'
_cell_length_a      7.76390560
_cell_length_b      8.28392844
_cell_length_c     17.22427417
_cell_angle_alpha   87.442831
_cell_angle_beta   77.813313
_cell_angle_gamma   81.731182

loop_
_atom_site_label
_atom_site_fract_x
_atom_site_fract_y
_atom_site_fract_z
SI1  2.600763185473E-01 -2.778310161792E-01  3.192849208844E-01
SI2 -2.600763185473E-01  2.778310161792E-01 -3.192849208844E-01
C3  4.499253696208E-01 -5.678540670880E-02  7.986101546683E-02
C4 -4.499253696208E-01  5.678540670880E-02 -7.986101546683E-02
C5  3.244442681937E-01  4.699401881186E-02  4.487455265362E-02
C6 -3.244442681937E-01 -4.699401881186E-02 -4.487455265362E-02
C7  1.475221100798E-01  8.983450117551E-02  8.582085484363E-02
C8 -1.475221100798E-01 -8.983450117551E-02 -8.582085484363E-02
C9  2.327388303764E-02  1.904992957710E-01  5.248717150535E-02
C10 -2.327388303764E-02 -1.904992957710E-01 -5.248717150535E-02
C11 -1.578155537148E-01  2.299762754301E-01  9.351731750378E-02
C12  1.578155537148E-01 -2.299762754301E-01 -9.351731750378E-02
C13 -2.764496629443E-01  3.300879715759E-01  5.911040033267E-02
C14  2.764496629443E-01 -3.300879715759E-01 -5.911040033267E-02
C15 -2.235787893941E-01  3.957705028563E-01 -1.907987536738E-02
C16  2.235787893941E-01 -3.957705028563E-01  1.907987536738E-02
C17 -5.286014923947E-02  3.622908294636E-01 -6.013216749395E-02
C18  5.286014923947E-02 -3.622908294636E-01  6.013216749395E-02
C19  7.674220990923E-02  2.568954704131E-01 -2.673269667261E-02
C20 -7.674220990923E-02 -2.568954704131E-01  2.673269667261E-02
C21  2.485465630506E-01  2.103936601422E-01 -6.856915487496E-02
C22 -2.485465630506E-01 -2.103936601422E-01  6.856915487496E-02
C23  3.747261001558E-01  1.038060686448E-01 -3.611924564282E-02
C24 -3.747261001558E-01 -1.038060686448E-01  3.611924564282E-02
C25  3.959830593818E-01 -1.216372556252E-01  1.573161056499E-01
C26 -3.959830593818E-01  1.216372556252E-01 -1.573161056499E-01
C27  3.466366285641E-01 -1.798597645470E-01  2.230535001323E-01
C28 -3.466366285641E-01  1.798597645470E-01 -2.230535001323E-01
C29  3.389397227297E-01  4.912414821049E-01  3.101015861845E-01
C30 -3.389397227297E-01 -4.912414821049E-01 -3.101015861845E-01
C31  2.613519539542E-01  4.148529169982E-01  2.476660686362E-01
C32 -2.613519539542E-01 -4.148529169982E-01 -2.476660686362E-01
C33 -4.572373054577E-01  4.508038438049E-01  2.932651016572E-01
C34  4.572373054577E-01 -4.508038438049E-01 -2.932651016572E-01
C35  3.608302361231E-01 -1.896722746696E-01  3.984085399104E-01
C36 -3.608302361231E-01  1.896722746696E-01 -3.984085399104E-01
C37  3.216005516843E-01 -2.760223739185E-01  4.798394431457E-01
C38 -3.216005516843E-01  2.760223739185E-01 -4.798394431457E-01
C39  3.148310412435E-01 -3.640666510677E-03  4.063634289658E-01
C40 -3.148310412435E-01  3.640666510677E-03 -4.063634289658E-01
C41  4.482102931700E-03 -2.408925589875E-01  3.344612787374E-01
C42 -4.482102931700E-03  2.408925589875E-01 -3.344612787374E-01
C43 -8.949095415700E-02 -3.327405796078E-01  4.070980672897E-01
C44  8.949095415700E-02  3.327405796078E-01 -4.070980672897E-01
C45 -7.696686959443E-02 -6.050131822017E-02  3.339753006958E-01
C46  7.696686959443E-02  6.050131822017E-02 -3.339753006958E-01
H47  1.071961705342E-01  3.877997505359E-02  1.448286232885E-01
H48 -1.071961705342E-01 -3.877997505359E-02 -1.448286232885E-01
H49 -1.989139959230E-01  1.763438481314E-01  1.522005026549E-01
H50  1.989139959230E-01 -1.763438481314E-01 -1.522005026549E-01
H51 -4.141194147847E-01  3.564714186051E-01  9.005404529723E-02
H52  4.141194147847E-01 -3.564714186051E-01 -9.005404529723E-02
H53 -3.223957848985E-01  4.729494946206E-01 -4.495724098409E-02
H54  3.223957848985E-01 -4.729494946206E-01  4.495724098409E-02
H55 -1.121212030034E-02  4.169659125173E-01 -1.185326945175E-01
H56  1.121212030034E-02 -4.169659125173E-01  1.185326945175E-01
H57  2.879824840224E-01  2.558463572445E-01 -1.287005561352E-01
H58 -2.879824840224E-01 -2.558463572445E-01  1.287005561352E-01
H59  2.867393224759E-01  4.378315295878E-01  3.683640771876E-01
H60 -2.867393224759E-01 -4.378315295878E-01 -3.683640771876E-01
H61  2.967107590416E-01  4.746969636941E-01  1.897239535314E-01
H62 -2.967107590416E-01 -4.746969636941E-01 -1.897239535314E-01
H63  1.163059896542E-01  4.249645509274E-01  2.633809319367E-01
H64 -1.163059896542E-01 -4.249645509274E-01 -2.633809319367E-01
H65  3.125708662081E-01  2.849679344563E-01  2.404746731523E-01
H66 -3.125708662081E-01 -2.849679344563E-01 -2.404746731523E-01
H67 -4.168203867276E-01  3.186271237037E-01  2.912750294619E-01
H68  4.168203867276E-01 -3.186271237037E-01 -2.912750294619E-01
H69 -3.990919145973E-01  4.975087656895E-01  3.387635368887E-01
H70  3.990919145973E-01 -4.975087656895E-01 -3.387635368887E-01
H71 -3.971736982477E-01 -4.982341672740E-01  2.359290900928E-01
H72  3.971736982477E-01  4.982341672740E-01 -2.359290900928E-01
H73 -4.953246419415E-01 -2.150817553628E-01  3.743930641400E-01
H74  4.953246419415E-01  2.150817553628E-01 -3.743930641400E-01
H75  3.921517053447E-01 -2.297694919524E-01 -4.789243334154E-01
H76 -3.921517053447E-01  2.297694919524E-01  4.789243334154E-01
H77  3.613725162131E-01 -4.079395868221E-01  4.761371341312E-01
H78 -3.613725162131E-01  4.079395868221E-01 -4.761371341312E-01
H79  1.798993797896E-01 -2.549701555190E-01 -4.927543801135E-01
H80 -1.798993797896E-01  2.549701555190E-01  4.927543801135E-01
H81  1.732568916980E-01  3.218297034651E-02  4.308022613770E-01
H82 -1.732568916980E-01 -3.218297034651E-02 -4.308022613770E-01
H83  3.473354759848E-01  5.917355961939E-02  3.491267370664E-01
H84 -3.473354759848E-01 -5.917355961939E-02 -3.491267370664E-01
H85  3.878119197488E-01  4.180660973889E-02  4.468369334774E-01
H86 -3.878119197488E-01 -4.180660973889E-02 -4.468369334774E-01
H87 -1.784848928603E-02 -2.951873582319E-01  2.810221518007E-01
H88  1.784848928603E-02  2.951873582319E-01 -2.810221518007E-01
H89 -3.695559616021E-02 -4.623717149523E-01  4.075113075144E-01
H90  3.695559616021E-02  4.623717149523E-01 -4.075113075144E-01
H91 -2.323172552508E-01 -3.240275427782E-01  4.085165291554E-01
H92  2.323172552508E-01  3.240275427782E-01 -4.085165291554E-01
H93 -7.629162614008E-02 -2.814973225404E-01  4.626390323439E-01
H94  7.629162614008E-02  2.814973225404E-01 -4.626390323439E-01
H95 -4.938838933447E-03  8.463611285683E-03  2.852619652447E-01
H96  4.938838933447E-03 -8.463611285683E-03 -2.852619652447E-01
H97 -7.662889366471E-02 -1.273841432150E-03  3.893472849203E-01
H98  7.662889366471E-02  1.273841432150E-03 -3.893472849203E-01
H99 -2.157696763746E-01 -4.877745305832E-02  3.276783522989E-01
H100  2.157696763746E-01  4.877745305832E-02 -3.276783522989E-01


#===END

data_OPT_STEP_9

_symmetry_space_group_name_H-M 'P 1'
_cell_length_a      7.76724408
_cell_length_b      8.29550149
_cell_length_c     17.22876508
_cell_angle_alpha   87.392292
_cell_angle_beta   77.781300
_cell_angle_gamma   81.678282

loop_
_atom_site_label
_atom_site_fract_x
_atom_site_fract_y
_atom_site_fract_z
SI1  2.604376222992E-01 -2.777698038860E-01  3.192022773861E-01
SI2 -2.604376222992E-01  2.777698038860E-01 -3.192022773861E-01
C3  4.497946761503E-01 -5.732620165277E-02  7.973735047436E-02
C4 -4.497946761503E-01  5.732620165277E-02 -7.973735047436E-02
C5  3.240182386826E-01  4.563801221883E-02  4.462260928568E-02
C6 -3.240182386826E-01 -4.563801221883E-02 -4.462260928568E-02
C7  1.473620789520E-01  8.892826512257E-02  8.566119860779E-02
C8 -1.473620789520E-01 -8.892826512257E-02 -8.566119860779E-02
C9  2.284755183829E-02  1.885402235822E-01  5.214993712052E-02
C10 -2.284755183829E-02 -1.885402235822E-01 -5.214993712052E-02
C11 -1.577172275543E-01  2.293366958427E-01  9.341805447486E-02
C12  1.577172275543E-01 -2.293366958427E-01 -9.341805447486E-02
C13 -2.763038230962E-01  3.294580394641E-01  5.907082550581E-02
C14  2.763038230962E-01 -3.294580394641E-01 -5.907082550581E-02
C15 -2.236079528797E-01  3.946172552584E-01 -1.916480635460E-02
C16  2.236079528797E-01 -3.946172552584E-01  1.916480635460E-02
C17 -5.374736243918E-02  3.587843527133E-01 -6.065595039011E-02
C18  5.374736243918E-02 -3.587843527133E-01  6.065595039011E-02
C19  7.608786050697E-02  2.542552850248E-01 -2.714306679196E-02
C20 -7.608786050697E-02 -2.542552850248E-01  2.714306679196E-02
C21  2.480451049826E-01  2.085221181714E-01 -6.886632258789E-02
C22 -2.480451049826E-01 -2.085221181714E-01  6.886632258789E-02
C23  3.748783419662E-01  1.041592107659E-01 -3.603399946002E-02
C24 -3.748783419662E-01 -1.041592107659E-01  3.603399946002E-02
C25  3.959836538478E-01 -1.220486406713E-01  1.571839806190E-01
C26 -3.959836538478E-01  1.220486406713E-01 -1.571839806190E-01
C27  3.467612353600E-01 -1.800515030128E-01  2.229189607043E-01
C28 -3.467612353600E-01  1.800515030128E-01 -2.229189607043E-01
C29  3.393762512639E-01  4.916988873215E-01  3.100273533522E-01
C30 -3.393762512639E-01 -4.916988873215E-01 -3.100273533522E-01
C31  2.617219140774E-01  4.157419738498E-01  2.476178848840E-01
C32 -2.617219140774E-01 -4.157419738498E-01 -2.476178848840E-01
C33 -4.568401623711E-01  4.513824864911E-01  2.930502481212E-01
C34  4.568401623711E-01 -4.513824864911E-01 -2.930502481212E-01
C35  3.612145976473E-01 -1.898210014743E-01  3.981817768992E-01
C36 -3.612145976473E-01  1.898210014743E-01 -3.981817768992E-01
C37  3.219826408724E-01 -2.760819645564E-01  4.795995850005E-01
C38 -3.219826408724E-01  2.760819645564E-01 -4.795995850005E-01
C39  3.152263242023E-01 -4.046547588913E-03  4.060547028937E-01
C40 -3.152263242023E-01  4.046547588913E-03 -4.060547028937E-01
C41  5.057352847234E-03 -2.406408047048E-01  3.343944067742E-01
C42 -5.057352847234E-03  2.406408047048E-01 -3.343944067742E-01
C43 -8.885094311616E-02 -3.324331869571E-01  4.069931444259E-01
C44  8.885094311616E-02  3.324331869571E-01 -4.069931444259E-01
C45 -7.624731967746E-02 -6.039605017836E-02  3.339688081604E-01
C46  7.624731967746E-02  6.039605017836E-02 -3.339688081604E-01
H47  1.074363101727E-01  3.891876335762E-02  1.448466468962E-01
H48 -1.074363101727E-01 -3.891876335762E-02 -1.448466468962E-01
H49 -1.977919260749E-01  1.786846755614E-01  1.526245625285E-01
H50  1.977919260749E-01 -1.786846755614E-01 -1.526245625285E-01
H51 -4.140894658043E-01  3.553265233842E-01  8.992654051960E-02
H52  4.140894658043E-01 -3.553265233842E-01 -8.992654051960E-02
H53 -3.218615622925E-01  4.731754688655E-01 -4.478458914786E-02
H54  3.218615622925E-01 -4.731754688655E-01  4.478458914786E-02
H55 -1.285838039440E-02  4.112162674848E-01 -1.194402998901E-01
H56  1.285838039440E-02 -4.112162674848E-01  1.194402998901E-01
H57  2.874663655203E-01  2.538733987579E-01 -1.289972562557E-01
H58 -2.874663655203E-01 -2.538733987579E-01  1.289972562557E-01
H59  2.873223639472E-01  4.382064378647E-01  3.682800268590E-01
H60 -2.873223639472E-01 -4.382064378647E-01 -3.682800268590E-01
H61  2.970344980269E-01  4.757242551464E-01  1.897095768767E-01
H62 -2.970344980269E-01 -4.757242551464E-01 -1.897095768767E-01
H63  1.166988956813E-01  4.260053370967E-01  2.633964534374E-01
H64 -1.166988956813E-01 -4.260053370967E-01 -2.633964534374E-01
H65  3.128752404547E-01  2.859841268439E-01  2.403723384324E-01
H66 -3.128752404547E-01 -2.859841268439E-01 -2.403723384324E-01
H67 -4.163078031518E-01  3.193570833270E-01  2.910384927535E-01
H68  4.163078031518E-01 -3.193570833270E-01 -2.910384927535E-01
H69 -3.986233617711E-01  4.979820106119E-01  3.384742287456E-01
H70  3.986233617711E-01 -4.979820106119E-01 -3.384742287456E-01
H71 -3.969857433901E-01 -4.976233182399E-01  2.356927401917E-01
H72  3.969857433901E-01  4.976233182399E-01 -2.356927401917E-01
H73 -4.949778840175E-01 -2.153324150432E-01  3.741631390107E-01
H74  4.949778840175E-01  2.153324150432E-01 -3.741631390107E-01
H75  3.924886430887E-01 -2.300408337645E-01 -4.791645154234E-01
H76 -3.924886430887E-01  2.300408337645E-01  4.791645154234E-01
H77  3.617863260972E-01 -4.078423670748E-01  4.758588137260E-01
H78 -3.617863260972E-01  4.078423670748E-01 -4.758588137260E-01
H79  1.802905193734E-01 -2.550196432629E-01 -4.930179369259E-01
H80 -1.802905193734E-01  2.550196432629E-01  4.930179369259E-01
H81  1.736138197104E-01  3.185325763300E-02  4.303580481561E-01
H82 -1.736138197104E-01 -3.185325763300E-02 -4.303580481561E-01
H83  3.480571058890E-01  5.857131842195E-02  3.487940191836E-01
H84 -3.480571058890E-01 -5.857131842195E-02 -3.487940191836E-01
H85  3.879777267364E-01  4.129050363167E-02  4.465789047315E-01
H86 -3.879777267364E-01 -4.129050363167E-02 -4.465789047315E-01
H87 -1.727849398862E-02 -2.946903143353E-01  2.809513974411E-01
H88  1.727849398862E-02  2.946903143353E-01 -2.809513974411E-01
H89 -3.617812878063E-02 -4.618999475908E-01  4.073874079307E-01
H90  3.617812878063E-02  4.618999475908E-01 -4.073874079307E-01
H91 -2.315931527058E-01 -3.237143633560E-01  4.083988217810E-01
H92  2.315931527058E-01  3.237143633560E-01 -4.083988217810E-01
H93 -7.574431178707E-02 -2.813173430285E-01  4.625204639678E-01
H94  7.574431178707E-02  2.813173430285E-01 -4.625204639678E-01
H95 -4.317497139424E-03  8.451111855822E-03  2.852138379302E-01
H96  4.317497139424E-03 -8.451111855822E-03 -2.852138379302E-01
H97 -7.567094457143E-02 -1.361018702053E-03  3.893127791448E-01
H98  7.567094457143E-02  1.361018702053E-03 -3.893127791448E-01
H99 -2.151000087125E-01 -4.850139453066E-02  3.277971456017E-01
H100  2.151000087125E-01  4.850139453066E-02 -3.277971456017E-01


#===END

data_OPT_STEP_10

_symmetry_space_group_name_H-M 'P 1'
_cell_length_a      7.78462709
_cell_length_b      8.33362219
_cell_length_c     17.23174924
_cell_angle_alpha   87.332635
_cell_angle_beta   77.679648
_cell_angle_gamma   81.463949

loop_
_atom_site_label
_atom_site_fract_x
_atom_site_fract_y
_atom_site_fract_z
SI1  2.608763236447E-01 -2.783820692413E-01  3.191430574698E-01
SI2 -2.608763236447E-01  2.783820692413E-01 -3.191430574698E-01
C3  4.483395800331E-01 -6.121331786378E-02  7.900182954133E-02
C4 -4.483395800331E-01  6.121331786378E-02 -7.900182954133E-02
C5  3.232141121829E-01  4.288622990096E-02  4.417527566447E-02
C6 -3.232141121829E-01 -4.288622990096E-02 -4.417527566447E-02
C7  1.465857868443E-01  8.571269564649E-02  8.511339185874E-02
C8 -1.465857868443E-01 -8.571269564649E-02 -8.511339185874E-02
C9  2.286414555596E-02  1.867321881892E-01  5.191160804547E-02
C10 -2.286414555596E-02 -1.867321881892E-01 -5.191160804547E-02
C11 -1.578208956768E-01  2.267647496657E-01  9.302962347738E-02
C12  1.578208956768E-01 -2.267647496657E-01 -9.302962347738E-02
C13 -2.762716810047E-01  3.265789284791E-01  5.874168143320E-02
C14  2.762716810047E-01 -3.265789284791E-01 -5.874168143320E-02
C15 -2.235983481922E-01  3.912680284709E-01 -1.950327154271E-02
C16  2.235983481922E-01 -3.912680284709E-01  1.950327154271E-02
C17 -5.378315651295E-02  3.555399708067E-01 -6.100354369451E-02
C18  5.378315651295E-02 -3.555399708067E-01  6.100354369451E-02
C19  7.582542465000E-02  2.512196919381E-01 -2.751328902416E-02
C20 -7.582542465000E-02 -2.512196919381E-01  2.751328902416E-02
C21  2.489470000262E-01  2.093903287942E-01 -6.855829510522E-02
C22 -2.489470000262E-01 -2.093903287942E-01  6.855829510522E-02
C23  3.756388924140E-01  1.055383924862E-01 -3.570899708824E-02
C24 -3.756388924140E-01 -1.055383924862E-01  3.570899708824E-02
C25  3.949992037783E-01 -1.249899738292E-01  1.566100285396E-01
C26 -3.949992037783E-01  1.249899738292E-01 -1.566100285396E-01
C27  3.462817865551E-01 -1.819426517863E-01  2.224654986142E-01
C28 -3.462817865551E-01  1.819426517863E-01 -2.224654986142E-01
C29  3.399544856396E-01  4.920956243219E-01  3.100838331012E-01
C30 -3.399544856396E-01 -4.920956243219E-01 -3.100838331012E-01
C31  2.624211281001E-01  4.167819510476E-01  2.477742970131E-01
C32 -2.624211281001E-01 -4.167819510476E-01 -2.477742970131E-01
C33 -4.565314821607E-01  4.516567125036E-01  2.927915091588E-01
C34  4.565314821607E-01 -4.516567125036E-01 -2.927915091588E-01
C35  3.618755821191E-01 -1.906972930416E-01  3.977482192817E-01
C36 -3.618755821191E-01  1.906972930416E-01 -3.977482192817E-01
C37  3.223530269626E-01 -2.757055990330E-01  4.793699714499E-01
C38 -3.223530269626E-01  2.757055990330E-01 -4.793699714499E-01
C39  3.163812293571E-01 -5.556295556070E-03  4.052691378296E-01
C40 -3.163812293571E-01  5.556295556070E-03 -4.052691378296E-01
C41  5.993200901524E-03 -2.408815447300E-01  3.346493966261E-01
C42 -5.993200901524E-03  2.408815447300E-01 -3.346493966261E-01
C43 -8.764115774571E-02 -3.324300374268E-01  4.071744120328E-01
C44  8.764115774571E-02  3.324300374268E-01 -4.071744120328E-01
C45 -7.529707704468E-02 -6.122703943435E-02  3.344923954459E-01
C46  7.529707704468E-02  6.122703943435E-02 -3.344923954459E-01
H47  1.060227363711E-01  3.412616461828E-02  1.439320567556E-01
H48 -1.060227363711E-01 -3.412616461828E-02 -1.439320567556E-01
H49 -1.984946858134E-01  1.745693625228E-01  1.518889504780E-01
H50  1.984946858134E-01 -1.745693625228E-01 -1.518889504780E-01
H51 -4.132526885309E-01  3.546895660805E-01  9.001658034888E-02
H52  4.132526885309E-01 -3.546895660805E-01 -9.001658034888E-02
H53 -3.211498053792E-01  4.713680204116E-01 -4.478044248489E-02
H54  3.211498053792E-01 -4.713680204116E-01  4.478044248489E-02
H55 -1.278649229542E-02  4.079548840046E-01 -1.197466699914E-01
H56  1.278649229542E-02 -4.079548840046E-01  1.197466699914E-01
H57  2.895339326319E-01  2.576632776679E-01 -1.281337076044E-01
H58 -2.895339326319E-01 -2.576632776679E-01  1.281337076044E-01
H59  2.882017938231E-01  4.389279783555E-01  3.683979883392E-01
H60 -2.882017938231E-01 -4.389279783555E-01 -3.683979883392E-01
H61  2.976036858822E-01  4.764380681082E-01  1.898178766533E-01
H62 -2.976036858822E-01 -4.764380681082E-01 -1.898178766533E-01
H63  1.175993869238E-01  4.274591374572E-01  2.637137059650E-01
H64 -1.175993869238E-01 -4.274591374572E-01 -2.637137059650E-01
H65  3.135676151123E-01  2.874290800575E-01  2.405487409053E-01
H66 -3.135676151123E-01 -2.874290800575E-01 -2.405487409053E-01
H67 -4.158185218776E-01  3.200889395193E-01  2.908250565077E-01
H68  4.158185218776E-01 -3.200889395193E-01 -2.908250565077E-01
H69 -3.983232215960E-01  4.981046465600E-01  3.380580464497E-01
H70  3.983232215960E-01 -4.981046465600E-01 -3.380580464497E-01
H71 -3.970812122046E-01 -4.978014310862E-01  2.353034596330E-01
H72  3.970812122046E-01  4.978014310862E-01 -2.353034596330E-01
H73 -4.945052378957E-01 -2.170203584787E-01  3.736950806665E-01
H74  4.945052378957E-01  2.170203584787E-01 -3.736950806665E-01
H75  3.925923213332E-01 -2.299318739737E-01 -4.794196178206E-01
H76 -3.925923213332E-01  2.299318739737E-01  4.794196178206E-01
H77  3.619330523602E-01 -4.070377104287E-01  4.758498750472E-01
H78 -3.619330523602E-01  4.070377104287E-01 -4.758498750472E-01
H79  1.807658179848E-01 -2.540121908373E-01 -4.933034421044E-01
H80 -1.807658179848E-01  2.540121908373E-01  4.933034421044E-01
H81  1.748589933200E-01  3.104910247649E-02  4.293600470935E-01
H82 -1.748589933200E-01 -3.104910247649E-02 -4.293600470935E-01
H83  3.499385834913E-01  5.622594291571E-02  3.478791958250E-01
H84 -3.499385834913E-01 -5.622594291571E-02 -3.478791958250E-01
H85  3.886948463275E-01  3.939859808245E-02  4.458624308814E-01
H86 -3.886948463275E-01 -3.939859808245E-02 -4.458624308814E-01
H87 -1.625795542147E-02 -2.942991129347E-01  2.811658597631E-01
H88  1.625795542147E-02  2.942991129347E-01 -2.811658597631E-01
H89 -3.446238091036E-02 -4.613566596704E-01  4.075013794454E-01
H90  3.446238091036E-02  4.613566596704E-01 -4.075013794454E-01
H91 -2.300882483701E-01 -3.238093122581E-01  4.084880336866E-01
H92  2.300882483701E-01  3.238093122581E-01 -4.084880336866E-01
H93 -7.514559956536E-02 -2.816301736444E-01  4.627646952891E-01
H94  7.514559956536E-02  2.816301736444E-01 -4.627646952891E-01
H95 -3.661817942474E-03  7.315068563761E-03  2.857080463484E-01
H96  3.661817942474E-03 -7.315068563761E-03 -2.857080463484E-01
H97 -7.454623605075E-02 -2.806727675061E-03  3.898756365788E-01
H98  7.454623605075E-02  2.806727675061E-03 -3.898756365788E-01
H99 -2.140293379063E-01 -4.892679531877E-02  3.285336744793E-01
H100  2.140293379063E-01  4.892679531877E-02 -3.285336744793E-01


#===END

data_OPT_STEP_11

_symmetry_space_group_name_H-M 'P 1'
_cell_length_a      7.81130859
_cell_length_b      8.33400663
_cell_length_c     17.28391896
_cell_angle_alpha   87.043131
_cell_angle_beta   77.464505
_cell_angle_gamma   81.387267

loop_
_atom_site_label
_atom_site_fract_x
_atom_site_fract_y
_atom_site_fract_z
SI1  2.607931527018E-01 -2.796117507888E-01  3.194629411065E-01
SI2 -2.607931527018E-01  2.796117507888E-01 -3.194629411065E-01
C3  4.480083394930E-01 -6.210247439755E-02  7.894647150346E-02
C4 -4.480083394930E-01  6.210247439755E-02 -7.894647150346E-02
C5  3.234590876355E-01  4.243610126622E-02  4.413253644171E-02
C6 -3.234590876355E-01 -4.243610126622E-02 -4.413253644171E-02
C7  1.471451619017E-01  8.522534474166E-02  8.500945546826E-02
C8 -1.471451619017E-01 -8.522534474166E-02 -8.500945546826E-02
C9  2.363441679165E-02  1.860205580949E-01  5.181700657148E-02
C10 -2.363441679165E-02 -1.860205580949E-01 -5.181700657148E-02
C11 -1.565122394910E-01  2.265902442243E-01  9.303531129763E-02
C12  1.565122394910E-01 -2.265902442243E-01 -9.303531129763E-02
C13 -2.751647396373E-01  3.249947570930E-01  5.859310842810E-02
C14  2.751647396373E-01 -3.249947570930E-01 -5.859310842810E-02
C15 -2.223070579664E-01  3.904527335968E-01 -1.947448080132E-02
C16  2.223070579664E-01 -3.904527335968E-01  1.947448080132E-02
C17 -5.285952358911E-02  3.545998258974E-01 -6.101691323324E-02
C18  5.285952358911E-02 -3.545998258974E-01  6.101691323324E-02
C19  7.638276804503E-02  2.500520378761E-01 -2.763773928085E-02
C20 -7.638276804503E-02 -2.500520378761E-01  2.763773928085E-02
C21  2.491815095371E-01  2.082446610413E-01 -6.868241327372E-02
C22 -2.491815095371E-01 -2.082446610413E-01  6.868241327372E-02
C23  3.758332583759E-01  1.050056966145E-01 -3.581411311566E-02
C24 -3.758332583759E-01 -1.050056966145E-01  3.581411311566E-02
C25  3.945956306422E-01 -1.262215633086E-01  1.565752701124E-01
C26 -3.945956306422E-01  1.262215633086E-01 -1.565752701124E-01
C27  3.459200618267E-01 -1.831194977370E-01  2.224635026909E-01
C28 -3.459200618267E-01  1.831194977370E-01 -2.224635026909E-01
C29  3.390471265632E-01  4.905003845297E-01  3.108041907212E-01
C30 -3.390471265632E-01 -4.905003845297E-01 -3.108041907212E-01
C31  2.615823856789E-01  4.153439245141E-01  2.489719616880E-01
C32 -2.615823856789E-01 -4.153439245141E-01 -2.489719616880E-01
C33 -4.580218412367E-01  4.493536158602E-01  2.933588783640E-01
C34  4.580218412367E-01 -4.493536158602E-01 -2.933588783640E-01
C35  3.620174467866E-01 -1.922853525378E-01  3.975810304724E-01
C36 -3.620174467866E-01  1.922853525378E-01 -3.975810304724E-01
C37  3.214284254820E-01 -2.767467048470E-01  4.793758180064E-01
C38 -3.214284254820E-01  2.767467048470E-01 -4.793758180064E-01
C39  3.180561623387E-01 -6.834717566493E-03  4.046057236541E-01
C40 -3.180561623387E-01  6.834717566493E-03 -4.046057236541E-01
C41  6.391673696688E-03 -2.418422809485E-01  3.354258699669E-01
C42 -6.391673696688E-03  2.418422809485E-01 -3.354258699669E-01
C43 -8.749188372327E-02 -3.341333889288E-01  4.077915545546E-01
C44  8.749188372327E-02  3.341333889288E-01 -4.077915545546E-01
C45 -7.453144219249E-02 -6.198574084621E-02  3.354317561477E-01
C46  7.453144219249E-02  6.198574084621E-02 -3.354317561477E-01
H47  1.068887146220E-01  3.445923817834E-02  1.439685340331E-01
H48 -1.068887146220E-01 -3.445923817834E-02 -1.439685340331E-01
H49 -1.968728970945E-01  1.752333149534E-01  1.520233869558E-01
H50  1.968728970945E-01 -1.752333149534E-01 -1.520233869558E-01
H51 -4.118230511488E-01  3.532794096545E-01  8.993946742541E-02
H52  4.118230511488E-01 -3.532794096545E-01 -8.993946742541E-02
H53 -3.196520374606E-01  4.708879872509E-01 -4.456787689946E-02
H54  3.196520374606E-01 -4.708879872509E-01  4.456787689946E-02
H55 -1.208330434350E-02  4.065186937262E-01 -1.198263701960E-01
H56  1.208330434350E-02 -4.065186937262E-01  1.198263701960E-01
H57  2.893890131549E-01  2.555220796941E-01 -1.284057951685E-01
H58 -2.893890131549E-01 -2.555220796941E-01  1.284057951685E-01
H59  2.871793903381E-01  4.373672998134E-01  3.691513356545E-01
H60 -2.871793903381E-01 -4.373672998134E-01 -3.691513356545E-01
H61  2.968866095175E-01  4.748881961729E-01  1.909542556976E-01
H62 -2.968866095175E-01 -4.748881961729E-01 -1.909542556976E-01
H63  1.171170545938E-01  4.262889810663E-01  2.650680448022E-01
H64 -1.171170545938E-01 -4.262889810663E-01 -2.650680448022E-01
H65  3.123007810583E-01  2.858329918007E-01  2.420557684098E-01
H66 -3.123007810583E-01 -2.858329918007E-01 -2.420557684098E-01
H67 -4.179133483047E-01  3.176177562029E-01  2.917334542059E-01
H68  4.179133483047E-01 -3.176177562029E-01 -2.917334542059E-01
H69 -3.998503280679E-01  4.956460503023E-01  3.382743375937E-01
H70  3.998503280679E-01 -4.956460503023E-01 -3.382743375937E-01
H71 -3.984174825088E-01  4.996011836601E-01  2.357686302458E-01
H72  3.984174825088E-01 -4.996011836601E-01 -2.357686302458E-01
H73 -4.946877699286E-01 -2.195428851956E-01  3.735794021066E-01
H74  4.946877699286E-01  2.195428851956E-01 -3.735794021066E-01
H75  3.912926415379E-01 -2.311995111888E-01 -4.795854527667E-01
H76 -3.912926415379E-01  2.311995111888E-01  4.795854527667E-01
H77  3.600934543271E-01 -4.082760719896E-01  4.763646962986E-01
H78 -3.600934543271E-01  4.082760719896E-01 -4.763646962986E-01
H79  1.800814109588E-01 -2.542410028518E-01 -4.934299721839E-01
H80 -1.800814109588E-01  2.542410028518E-01  4.934299721839E-01
H81  1.768761185746E-01  3.071457303675E-02  4.284648421614E-01
H82 -1.768761185746E-01 -3.071457303675E-02 -4.284648421614E-01
H83  3.526824240070E-01  5.485414053397E-02  3.472078854984E-01
H84 -3.526824240070E-01 -5.485414053397E-02 -3.472078854984E-01
H85  3.900185683340E-01  3.749944514003E-02  4.451374697338E-01
H86 -3.900185683340E-01 -3.749944514003E-02 -4.451374697338E-01
H87 -1.575051198302E-02 -2.945586116325E-01  2.820870742857E-01
H88  1.575051198302E-02  2.945586116325E-01 -2.820870742857E-01
H89 -3.432526094846E-02 -4.631322043579E-01  4.081847674187E-01
H90  3.432526094846E-02  4.631322043579E-01 -4.081847674187E-01
H91 -2.294946816895E-01 -3.256312551207E-01  4.090073686641E-01
H92  2.294946816895E-01  3.256312551207E-01 -4.090073686641E-01
H93 -7.577822557843E-02 -2.837947828132E-01  4.632936844642E-01
H94  7.577822557843E-02  2.837947828132E-01 -4.632936844642E-01
H95 -2.832368672677E-03  7.085098487590E-03  2.867966950147E-01
H96  2.832368672677E-03 -7.085098487590E-03 -2.867966950147E-01
H97 -7.401640836339E-02 -4.335900118936E-03  3.907299488278E-01
H98  7.401640836339E-02  4.335900118936E-03 -3.907299488278E-01
H99 -2.128046844456E-01 -4.930030362198E-02  3.295594149975E-01
H100  2.128046844456E-01  4.930030362198E-02 -3.295594149975E-01


#===END

data_OPT_STEP_12

_symmetry_space_group_name_H-M 'P 1'
_cell_length_a      7.82478939
_cell_length_b      8.38005511
_cell_length_c     17.27451481
_cell_angle_alpha   86.982540
_cell_angle_beta   77.403902
_cell_angle_gamma   81.217501

loop_
_atom_site_label
_atom_site_fract_x
_atom_site_fract_y
_atom_site_fract_z
SI1  2.614680423783E-01 -2.792272326854E-01  3.192636486663E-01
SI2 -2.614680423783E-01  2.792272326854E-01 -3.192636486663E-01
C3  4.475526108808E-01 -6.323564632505E-02  7.864258233197E-02
C4 -4.475526108808E-01  6.323564632505E-02 -7.864258233197E-02
C5  3.233836630407E-01  4.174953412276E-02  4.405622007391E-02
C6 -3.233836630407E-01 -4.174953412276E-02 -4.405622007391E-02
C7  1.469903714760E-01  8.360359165519E-02  8.484495308161E-02
C8 -1.469903714760E-01 -8.360359165519E-02 -8.484495308161E-02
C9  2.344502240928E-02  1.838004627663E-01  5.159387720114E-02
C10 -2.344502240928E-02 -1.838004627663E-01 -5.159387720114E-02
C11 -1.562279492078E-01  2.250823438822E-01  9.300544566098E-02
C12  1.562279492078E-01 -2.250823438822E-01 -9.300544566098E-02
C13 -2.747600279876E-01  3.233568210828E-01  5.859342538379E-02
C14  2.747600279876E-01 -3.233568210828E-01 -5.859342538379E-02
C15 -2.216001660007E-01  3.895870367781E-01 -1.932171188731E-02
C16  2.216001660007E-01 -3.895870367781E-01  1.932171188731E-02
C17 -5.258843370679E-02  3.530308297705E-01 -6.105020251253E-02
C18  5.258843370679E-02 -3.530308297705E-01  6.105020251253E-02
C19  7.655379550742E-02  2.488967942051E-01 -2.767120954276E-02
C20 -7.655379550742E-02 -2.488967942051E-01  2.767120954276E-02
C21  2.496035779171E-01  2.082118884635E-01 -6.859048547810E-02
C22 -2.496035779171E-01 -2.082118884635E-01  6.859048547810E-02
C23  3.761763775770E-01  1.053785500203E-01 -3.566347869396E-02
C24 -3.761763775770E-01 -1.053785500203E-01  3.566347869396E-02
C25  3.942636070896E-01 -1.270195760059E-01  1.562583619257E-01
C26 -3.942636070896E-01  1.270195760059E-01 -1.562583619257E-01
C27  3.458025150577E-01 -1.834716093699E-01  2.222270993349E-01
C28 -3.458025150577E-01  1.834716093699E-01 -2.222270993349E-01
C29  3.404007903506E-01  4.923235491251E-01  3.103476436070E-01
C30 -3.404007903506E-01 -4.923235491251E-01 -3.103476436070E-01
C31  2.631542534509E-01  4.183192367742E-01  2.483518737311E-01
C32 -2.631542534509E-01 -4.183192367742E-01 -2.483518737311E-01
C33 -4.568016794977E-01  4.516932925545E-01  2.926242483904E-01
C34  4.568016794977E-01 -4.516932925545E-01 -2.926242483904E-01
C35  3.626427910763E-01 -1.926328947483E-01  3.971331081168E-01
C36 -3.626427910763E-01  1.926328947483E-01 -3.971331081168E-01
C37  3.218681457031E-01 -2.764696161538E-01  4.790018783600E-01
C38 -3.218681457031E-01  2.764696161538E-01 -4.790018783600E-01
C39  3.189006165331E-01 -8.162045302916E-03  4.039153342764E-01
C40 -3.189006165331E-01  8.162045302916E-03 -4.039153342764E-01
C41  7.510851201662E-03 -2.411311295877E-01  3.353387550670E-01
C42 -7.510851201662E-03  2.411311295877E-01 -3.353387550670E-01
C43 -8.608601957685E-02 -3.328336183037E-01  4.077531991021E-01
C44  8.608601957685E-02  3.328336183037E-01 -4.077531991021E-01
C45 -7.325916884420E-02 -6.210507592238E-02  3.354344602356E-01
C46  7.325916884420E-02  6.210507592238E-02 -3.354344602356E-01
H47  1.071969534053E-01  3.393495540177E-02  1.440229879839E-01
H48 -1.071969534053E-01 -3.393495540177E-02 -1.440229879839E-01
H49 -1.964863945587E-01  1.738896194287E-01  1.520096965459E-01
H50  1.964863945587E-01 -1.738896194287E-01 -1.520096965459E-01
H51 -4.107721819685E-01  3.531951663552E-01  9.027224542893E-02
H52  4.107721819685E-01 -3.531951663552E-01 -9.027224542893E-02
H53 -3.185739609909E-01  4.699753821912E-01 -4.443527005140E-02
H54  3.185739609909E-01 -4.699753821912E-01  4.443527005140E-02
H55 -1.200534376631E-02  4.043314580332E-01 -1.199582592345E-01
H56  1.200534376631E-02 -4.043314580332E-01  1.199582592345E-01
H57  2.897034018737E-01  2.550455599411E-01 -1.283964409912E-01
H58 -2.897034018737E-01 -2.550455599411E-01  1.283964409912E-01
H59  2.889854403451E-01  4.389649753361E-01  3.686580375637E-01
H60 -2.889854403451E-01 -4.389649753361E-01 -3.686580375637E-01
H61  2.981686612930E-01  4.781159555352E-01  1.904096470318E-01
H62 -2.981686612930E-01 -4.781159555352E-01 -1.904096470318E-01
H63  1.188646520170E-01  4.292612812895E-01  2.645540893785E-01
H64 -1.188646520170E-01 -4.292612812895E-01 -2.645540893785E-01
H65  3.141462102637E-01  2.895333489615E-01  2.411645082432E-01
H66 -3.141462102637E-01 -2.895333489615E-01 -2.411645082432E-01
H67 -4.160909189571E-01  3.206997813380E-01  2.906846056474E-01
H68  4.160909189571E-01 -3.206997813380E-01 -2.906846056474E-01
H69 -3.987291172094E-01  4.973720059945E-01  3.375762489086E-01
H70  3.987291172094E-01 -4.973720059945E-01 -3.375762489086E-01
H71 -3.977595328992E-01 -4.977459403921E-01  2.350678442098E-01
H72  3.977595328992E-01  4.977459403921E-01 -2.350678442098E-01
H73 -4.942444705093E-01 -2.203115062804E-01  3.731024500558E-01
H74  4.942444705093E-01  2.203115062804E-01 -3.731024500558E-01
H75  3.918903068770E-01 -2.316453213464E-01 -4.800221601479E-01
H76 -3.918903068770E-01  2.316453213464E-01  4.800221601479E-01
H77  3.602148445378E-01 -4.073877678412E-01  4.759709465727E-01
H78 -3.602148445378E-01  4.073877678412E-01 -4.759709465727E-01
H79  1.806891649542E-01 -2.534548488372E-01 -4.937452372045E-01
H80 -1.806891649542E-01  2.534548488372E-01  4.937452372045E-01
H81  1.779041679473E-01  2.979426398878E-02  4.277010741006E-01
H82 -1.779041679473E-01 -2.979426398878E-02 -4.277010741006E-01
H83  3.538388583180E-01  5.276580776800E-02  3.463783722896E-01
H84 -3.538388583180E-01 -5.276580776800E-02 -3.463783722896E-01
H85  3.907055258574E-01  3.573617179193E-02  4.444247357301E-01
H86 -3.907055258574E-01 -3.573617179193E-02 -4.444247357301E-01
H87 -1.460336567227E-02 -2.932531563605E-01  2.819370925515E-01
H88  1.460336567227E-02  2.932531563605E-01 -2.819370925515E-01
H89 -3.266221369658E-02 -4.611613684811E-01  4.081170611732E-01
H90  3.266221369658E-02  4.611613684811E-01 -4.081170611732E-01
H91 -2.278378693050E-01 -3.242559814237E-01  4.089759520728E-01
H92  2.278378693050E-01  3.242559814237E-01 -4.089759520728E-01
H93 -7.452425027486E-02 -2.828060709982E-01  4.632911869609E-01
H94  7.452425027486E-02  2.828060709982E-01 -4.632911869609E-01
H95 -1.848271924062E-03  6.395220019105E-03  2.866513008812E-01
H96  1.848271924062E-03 -6.395220019105E-03 -2.866513008812E-01
H97 -7.231625417697E-02 -4.917359591079E-03  3.907314387531E-01
H98  7.231625417697E-02  4.917359591079E-03 -3.907314387531E-01
H99 -2.115394931105E-01 -4.905160692068E-02  3.298115472187E-01
H100  2.115394931105E-01  4.905160692068E-02 -3.298115472187E-01


#===END

data_OPT_STEP_13

_symmetry_space_group_name_H-M 'P 1'
_cell_length_a      7.85034339
_cell_length_b      8.38782028
_cell_length_c     17.31216887
_cell_angle_alpha   86.715542
_cell_angle_beta   77.135693
_cell_angle_gamma   81.138844

loop_
_atom_site_label
_atom_site_fract_x
_atom_site_fract_y
_atom_site_fract_z
SI1  2.608694469783E-01 -2.800070014242E-01  3.199115222513E-01
SI2 -2.608694469783E-01  2.800070014242E-01 -3.199115222513E-01
C3  4.472956963206E-01 -6.338341204912E-02  7.875291612577E-02
C4 -4.472956963206E-01  6.338341204912E-02 -7.875291612577E-02
C5  3.231753771870E-01  4.062178173701E-02  4.392321952999E-02
C6 -3.231753771870E-01 -4.062178173701E-02 -4.392321952999E-02
C7  1.469745930331E-01  8.251267109993E-02  8.474305109678E-02
C8 -1.469745930331E-01 -8.251267109993E-02 -8.474305109678E-02
C9  2.403465495289E-02  1.833625182129E-01  5.165153523481E-02
C10 -2.403465495289E-02 -1.833625182129E-01 -5.165153523481E-02
C11 -1.557173352785E-01  2.238674399524E-01  9.296111595224E-02
C12  1.557173352785E-01 -2.238674399524E-01 -9.296111595224E-02
C13 -2.736283767076E-01  3.228391826547E-01  5.871739373465E-02
C14  2.736283767076E-01 -3.228391826547E-01 -5.871739373465E-02
C15 -2.201510035044E-01  3.893955356686E-01 -1.915262850434E-02
C16  2.201510035044E-01 -3.893955356686E-01  1.915262850434E-02
C17 -5.119537980307E-02  3.532198676570E-01 -6.084864293164E-02
C18  5.119537980307E-02 -3.532198676570E-01  6.084864293164E-02
C19  7.734092965167E-02  2.484441590591E-01 -2.762983691212E-02
C20 -7.734092965167E-02 -2.484441590591E-01  2.762983691212E-02
C21  2.502389891783E-01  2.078847415438E-01 -6.856823430857E-02
C22 -2.502389891783E-01 -2.078847415438E-01  6.856823430857E-02
C23  3.764990160167E-01  1.051090526778E-01 -3.570595286112E-02
C24 -3.764990160167E-01 -1.051090526778E-01  3.570595286112E-02
C25  3.937250920336E-01 -1.276031066889E-01  1.564393325953E-01
C26 -3.937250920336E-01  1.276031066889E-01 -1.564393325953E-01
C27  3.451259821620E-01 -1.841249627860E-01  2.225296751177E-01
C28 -3.451259821620E-01  1.841249627860E-01 -2.225296751177E-01
C29  3.392446627261E-01  4.913596926331E-01  3.112899561385E-01
C30 -3.392446627261E-01 -4.913596926331E-01 -3.112899561385E-01
C31  2.621725444793E-01  4.174609796454E-01  2.497171768083E-01
C32 -2.621725444793E-01 -4.174609796454E-01 -2.497171768083E-01
C33 -4.584414388630E-01  4.501672297818E-01  2.933639245708E-01
C34  4.584414388630E-01 -4.501672297818E-01 -2.933639245708E-01
C35  3.621145759105E-01 -1.938035266081E-01  3.973663116513E-01
C36 -3.621145759105E-01  1.938035266081E-01 -3.973663116513E-01
C37  3.200654312851E-01 -2.768212552659E-01  4.795214510821E-01
C38 -3.200654312851E-01  2.768212552659E-01 -4.795214510821E-01
C39  3.201124591172E-01 -9.157591259040E-03  4.035577245315E-01
C40 -3.201124591172E-01  9.157591259040E-03 -4.035577245315E-01
C41  7.230602507775E-03 -2.417030532687E-01  3.364971336291E-01
C42 -7.230602507775E-03  2.417030532687E-01 -3.364971336291E-01
C43 -8.672629412292E-02 -3.341475006774E-01  4.087990306333E-01
C44  8.672629412292E-02  3.341475006774E-01 -4.087990306333E-01
C45 -7.332491734545E-02 -6.264317533420E-02  3.368498783327E-01
C46  7.332491734545E-02  6.264317533420E-02 -3.368498783327E-01
H47  1.063486824552E-01  3.103434029934E-02  1.435975230670E-01
H48 -1.063486824552E-01 -3.103434029934E-02 -1.435975230670E-01
H49 -1.961190036528E-01  1.727915880754E-01  1.519990288946E-01
H50  1.961190036528E-01 -1.727915880754E-01 -1.519990288946E-01
H51 -4.100002963122E-01  3.511406482532E-01  9.015298275861E-02
H52  4.100002963122E-01 -3.511406482532E-01 -9.015298275861E-02
H53 -3.167518336293E-01  4.702708800622E-01 -4.409934996065E-02
H54  3.167518336293E-01 -4.702708800622E-01  4.409934996065E-02
H55 -1.012284056590E-02  4.055204817166E-01 -1.195830065387E-01
H56  1.012284056590E-02 -4.055204817166E-01  1.195830065387E-01
H57  2.910404576736E-01  2.563387165857E-01 -1.281075282469E-01
H58 -2.910404576736E-01 -2.563387165857E-01  1.281075282469E-01
H59  2.877004348612E-01  4.380566202645E-01  3.696877096681E-01
H60 -2.877004348612E-01 -4.380566202645E-01 -3.696877096681E-01
H61  2.973166320544E-01  4.770963370825E-01  1.916664952019E-01
H62 -2.973166320544E-01 -4.770963370825E-01 -1.916664952019E-01
H63  1.181874091696E-01  4.285668869442E-01  2.661187232658E-01
H64 -1.181874091696E-01 -4.285668869442E-01 -2.661187232658E-01
H65  3.128659180034E-01  2.886700520682E-01  2.427801985456E-01
H66 -3.128659180034E-01 -2.886700520682E-01 -2.427801985456E-01
H67 -4.182052246250E-01  3.191557548964E-01  2.917310993288E-01
H68  4.182052246250E-01 -3.191557548964E-01 -2.917310993288E-01
H69 -4.004775203037E-01  4.957203951148E-01  3.380068652200E-01
H70  4.004775203037E-01 -4.957203951148E-01 -3.380068652200E-01
H71 -3.992067262265E-01 -4.996033280687E-01  2.356509846404E-01
H72  3.992067262265E-01  4.996033280687E-01 -2.356509846404E-01
H73 -4.950348783925E-01 -2.225406664228E-01  3.733661247478E-01
H74  4.950348783925E-01  2.225406664228E-01 -3.733661247478E-01
H75  3.900803388638E-01 -2.323910920388E-01 -4.797906580914E-01
H76 -3.900803388638E-01  2.323910920388E-01  4.797906580914E-01
H77  3.571172758032E-01 -4.078734880146E-01  4.770364198597E-01
H78 -3.571172758032E-01  4.078734880146E-01 -4.770364198597E-01
H79  1.791355944846E-01 -2.525668744463E-01 -4.932106641090E-01
H80 -1.791355944846E-01  2.525668744463E-01  4.932106641090E-01
H81  1.795032996837E-01  2.995075422165E-02  4.272973281616E-01
H82 -1.795032996837E-01 -2.995075422165E-02 -4.272973281616E-01
H83  3.559639481468E-01  5.136086968185E-02  3.458971725624E-01
H84 -3.559639481468E-01 -5.136086968185E-02 -3.458971725624E-01
H85  3.919161759492E-01  3.413430775286E-02  4.438354070455E-01
H86 -3.919161759492E-01 -3.413430775286E-02 -4.438354070455E-01
H87 -1.467978886484E-02 -2.930060647749E-01  2.831558006630E-01
H88  1.467978886484E-02  2.930060647749E-01 -2.831558006630E-01
H89 -3.331225092393E-02 -4.624310521877E-01  4.091658866229E-01
H90  3.331225092393E-02  4.624310521877E-01 -4.091658866229E-01
H91 -2.280647062362E-01 -3.256373197559E-01  4.099426116319E-01
H92  2.280647062362E-01  3.256373197559E-01 -4.099426116319E-01
H93 -7.601438193508E-02 -2.846819923156E-01  4.643250990950E-01
H94  7.601438193508E-02  2.846819923156E-01 -4.643250990950E-01
H95 -1.913672246014E-03  6.408232116009E-03  2.881589586390E-01
H96  1.913672246014E-03 -6.408232116009E-03 -2.881589586390E-01
H97 -7.263551901742E-02 -6.299858698671E-03  3.921263663614E-01
H98  7.263551901742E-02  6.299858698671E-03 -3.921263663614E-01
H99 -2.112125278032E-01 -4.926115633632E-02  3.313869802889E-01
H100  2.112125278032E-01  4.926115633632E-02 -3.313869802889E-01


#===END

data_OPT_STEP_14

_symmetry_space_group_name_H-M 'P 1'
_cell_length_a      7.86668053
_cell_length_b      8.43452015
_cell_length_c     17.31331315
_cell_angle_alpha   86.663478
_cell_angle_beta   77.044741
_cell_angle_gamma   80.981478

loop_
_atom_site_label
_atom_site_fract_x
_atom_site_fract_y
_atom_site_fract_z
SI1  2.615116057310E-01 -2.796769547321E-01  3.197188031723E-01
SI2 -2.615116057310E-01  2.796769547321E-01 -3.197188031723E-01
C3  4.471654270310E-01 -6.347071012862E-02  7.860141497437E-02
C4 -4.471654270310E-01  6.347071012862E-02 -7.860141497437E-02
C5  3.234138357883E-01  4.085877228543E-02  4.398909723283E-02
C6 -3.234138357883E-01 -4.085877228543E-02 -4.398909723283E-02
C7  1.477543374087E-01  8.356113432700E-02  8.502227672294E-02
C8 -1.477543374087E-01 -8.356113432700E-02 -8.502227672294E-02
C9  2.496234359653E-02  1.840304304958E-01  5.194549132503E-02
C10 -2.496234359653E-02 -1.840304304958E-01 -5.194549132503E-02
C11 -1.547082414166E-01  2.241680720660E-01  9.321893260270E-02
C12  1.547082414166E-01 -2.241680720660E-01 -9.321893260270E-02
C13 -2.726258060507E-01  3.222934334380E-01  5.892937287256E-02
C14  2.726258060507E-01 -3.222934334380E-01 -5.892937287256E-02
C15 -2.191231206230E-01  3.885871793926E-01 -1.889809906595E-02
C16  2.191231206230E-01 -3.885871793926E-01  1.889809906595E-02
C17 -5.038636919001E-02  3.523219765271E-01 -6.064105289774E-02
C18  5.038636919001E-02 -3.523219765271E-01  6.064105289774E-02
C19  7.795034916846E-02  2.479253133670E-01 -2.746920563478E-02
C20 -7.795034916846E-02 -2.479253133670E-01  2.746920563478E-02
C21  2.505067555321E-01  2.070031702233E-01 -6.853431937761E-02
C22 -2.505067555321E-01 -2.070031702233E-01  6.853431937761E-02
C23  3.766865979310E-01  1.049197406694E-01 -3.562398066902E-02
C24 -3.766865979310E-01 -1.049197406694E-01  3.562398066902E-02
C25  3.935406465291E-01 -1.277302681834E-01  1.562115286838E-01
C26 -3.935406465291E-01  1.277302681834E-01 -1.562115286838E-01
C27  3.450512966843E-01 -1.840749002947E-01  2.223622071921E-01
C28 -3.450512966843E-01  1.840749002947E-01 -2.223622071921E-01
C29  3.406850898501E-01  4.930595162150E-01  3.106975671979E-01
C30 -3.406850898501E-01 -4.930595162150E-01 -3.106975671979E-01
C31  2.640287337484E-01  4.202529357723E-01  2.489553203561E-01
C32 -2.640287337484E-01 -4.202529357723E-01 -2.489553203561E-01
C33 -4.571910376717E-01  4.524186021678E-01  2.925463260747E-01
C34  4.571910376717E-01 -4.524186021678E-01 -2.925463260747E-01
C35  3.625875736696E-01 -1.943363984158E-01  3.969780718553E-01
C36 -3.625875736696E-01  1.943363984158E-01 -3.969780718553E-01
C37  3.202470017573E-01 -2.767593017009E-01  4.791578976493E-01
C38 -3.202470017573E-01  2.767593017009E-01 -4.791578976493E-01
C39  3.209785373939E-01 -1.065323717725E-02  4.029657015639E-01
C40 -3.209785373939E-01  1.065323717725E-02 -4.029657015639E-01
C41  8.268991175005E-03 -2.412213988647E-01  3.365036614982E-01
C42 -8.268991175005E-03  2.412213988647E-01 -3.365036614982E-01
C43 -8.541017889827E-02 -3.331430741382E-01  4.088155192508E-01
C44  8.541017889827E-02  3.331430741382E-01 -4.088155192508E-01
C45 -7.225492671324E-02 -6.300500062434E-02  3.370141730914E-01
C46  7.225492671324E-02  6.300500062434E-02 -3.370141730914E-01
H47  1.072702075609E-01  3.260955415170E-02  1.439352522972E-01
H48 -1.072702075609E-01 -3.260955415170E-02 -1.439352522972E-01
H49 -1.950662747743E-01  1.733074995451E-01  1.522345370368E-01
H50  1.950662747743E-01 -1.733074995451E-01 -1.522345370368E-01
H51 -4.090530673938E-01  3.499528179130E-01  9.027117546385E-02
H52  4.090530673938E-01 -3.499528179130E-01 -9.027117546385E-02
H53 -3.150977791292E-01  4.700882110303E-01 -4.372276597925E-02
H54  3.150977791292E-01 -4.700882110303E-01  4.372276597925E-02
H55 -9.503743704545E-03  4.038209174640E-01 -1.194532155684E-01
H56  9.503743704545E-03 -4.038209174640E-01  1.194532155684E-01
H57  2.911838056146E-01  2.549123655859E-01 -1.281247272934E-01
H58 -2.911838056146E-01 -2.549123655859E-01  1.281247272934E-01
H59  2.895240594573E-01  4.394273671902E-01  3.689995390755E-01
H60 -2.895240594573E-01 -4.394273671902E-01 -3.689995390755E-01
H61  2.990449038222E-01  4.801247800999E-01  1.910183011109E-01
H62 -2.990449038222E-01 -4.801247800999E-01 -1.910183011109E-01
H63  1.202469843675E-01  4.313595540413E-01  2.654063938055E-01
H64 -1.202469843675E-01 -4.313595540413E-01 -2.654063938055E-01
H65  3.149484435259E-01  2.921776938361E-01  2.417490052833E-01
H66 -3.149484435259E-01 -2.921776938361E-01 -2.417490052833E-01
H67 -4.163901276169E-01  3.221417166892E-01  2.906610294149E-01
H68  4.163901276169E-01 -3.221417166892E-01 -2.906610294149E-01
H69 -3.994429037503E-01  4.974987915578E-01  3.371963066979E-01
H70  3.994429037503E-01 -4.974987915578E-01 -3.371963066979E-01
H71 -3.984091094543E-01 -4.971581340637E-01  2.348736315304E-01
H72  3.984091094543E-01  4.971581340637E-01 -2.348736315304E-01
H73 -4.947732577818E-01 -2.235290285865E-01  3.729744057626E-01
H74  4.947732577818E-01  2.235290285865E-01 -3.729744057626E-01
H75  3.904986334036E-01 -2.331143232441E-01 -4.802743704349E-01
H76 -3.904986334036E-01  2.331143232441E-01  4.802743704349E-01
H77  3.568069111102E-01 -4.072078225768E-01  4.766568799288E-01
H78 -3.568069111102E-01  4.072078225768E-01 -4.766568799288E-01
H79  1.795366723546E-01 -2.518741359201E-01 -4.934985747371E-01
H80 -1.795366723546E-01  2.518741359201E-01  4.934985747371E-01
H81  1.806156111758E-01  2.890607304710E-02  4.266704070313E-01
H82 -1.806156111758E-01 -2.890607304710E-02 -4.266704070313E-01
H83  3.571212664637E-01  4.912825043954E-02  3.452051413940E-01
H84 -3.571212664637E-01 -4.912825043954E-02 -3.452051413940E-01
H85  3.927222574407E-01  3.217477932121E-02  4.431525459943E-01
H86 -3.927222574407E-01 -3.217477932121E-02 -4.431525459943E-01
H87 -1.357510630752E-02 -2.919435245483E-01  2.831259403943E-01
H88  1.357510630752E-02  2.919435245483E-01 -2.831259403943E-01
H89 -3.186280187782E-02 -4.607862600552E-01  4.091170363972E-01
H90  3.186280187782E-02  4.607862600552E-01 -4.091170363972E-01
H91 -2.264806055475E-01 -3.244462660202E-01  4.100067706447E-01
H92  2.264806055475E-01  3.244462660202E-01 -4.100067706447E-01
H93 -7.479647525279E-02 -2.840552802212E-01  4.643484747353E-01
H94  7.479647525279E-02  2.840552802212E-01 -4.643484747353E-01
H95 -1.425630465935E-03  5.558390682452E-03  2.881420135326E-01
H96  1.425630465935E-03 -5.558390682452E-03 -2.881420135326E-01
H97 -7.096454451277E-02 -7.069897055642E-03  3.922227384721E-01
H98  7.096454451277E-02  7.069897055642E-03 -3.922227384721E-01
H99 -2.101888053763E-01 -4.939176554133E-02  3.319616420812E-01
H100  2.101888053763E-01  4.939176554133E-02 -3.319616420812E-01


#===END

data_OPT_STEP_15

_symmetry_space_group_name_H-M 'P 1'
_cell_length_a      7.91929379
_cell_length_b      8.49938120
_cell_length_c     17.34785027
_cell_angle_alpha   86.705009
_cell_angle_beta   76.883209
_cell_angle_gamma   80.731904

loop_
_atom_site_label
_atom_site_fract_x
_atom_site_fract_y
_atom_site_fract_z
SI1  2.624523332644E-01 -2.818484183895E-01  3.185296647153E-01
SI2 -2.624523332644E-01  2.818484183895E-01 -3.185296647153E-01
C3  4.462199306469E-01 -6.635181924141E-02  7.772527504294E-02
C4 -4.462199306469E-01  6.635181924141E-02 -7.772527504294E-02
C5  3.231789838639E-01  3.816149644063E-02  4.352836635150E-02
C6 -3.231789838639E-01 -3.816149644063E-02 -4.352836635150E-02
C7  1.471498777593E-01  7.750432909568E-02  8.399247525699E-02
C8 -1.471498777593E-01 -7.750432909568E-02 -8.399247525699E-02
C9  2.510762400611E-02  1.780767860370E-01  5.125970420150E-02
C10 -2.510762400611E-02 -1.780767860370E-01 -5.125970420150E-02
C11 -1.543093036834E-01  2.165504144581E-01  9.220493017465E-02
C12  1.543093036834E-01 -2.165504144581E-01 -9.220493017465E-02
C13 -2.708819365294E-01  3.164223629063E-01  5.855220564508E-02
C14  2.708819365294E-01 -3.164223629063E-01 -5.855220564508E-02
C15 -2.160451924163E-01  3.865704879245E-01 -1.821713111359E-02
C16  2.160451924163E-01 -3.865704879245E-01  1.821713111359E-02
C17 -4.762912666546E-02  3.515365943448E-01 -5.972131774965E-02
C18  4.762912666546E-02 -3.515365943448E-01  5.972131774965E-02
C19  7.956924057487E-02  2.462167893277E-01 -2.705775677514E-02
C20 -7.956924057487E-02 -2.462167893277E-01  2.705775677514E-02
C21  2.523235851410E-01  2.081288966629E-01 -6.764440931254E-02
C22 -2.523235851410E-01 -2.081288966629E-01  6.764440931254E-02
C23  3.776215102707E-01  1.056912173972E-01 -3.512082549923E-02
C24 -3.776215102707E-01 -1.056912173972E-01  3.512082549923E-02
C25  3.926082438285E-01 -1.310828317597E-01  1.550208280782E-01
C26 -3.926082438285E-01  1.310828317597E-01 -1.550208280782E-01
C27  3.444451519383E-01 -1.869733013887E-01  2.211644174761E-01
C28 -3.444451519383E-01  1.869733013887E-01 -2.211644174761E-01
C29  3.418581012622E-01  4.923959944792E-01  3.088772288287E-01
C30 -3.418581012622E-01 -4.923959944792E-01 -3.088772288287E-01
C31  2.657307471751E-01  4.209905681031E-01  2.470659228160E-01
C32 -2.657307471751E-01 -4.209905681031E-01 -2.470659228160E-01
C33 -4.570473622192E-01  4.517192153469E-01  2.903769889010E-01
C34  4.570473622192E-01 -4.517192153469E-01 -2.903769889010E-01
C35  3.636591136417E-01 -1.977630434118E-01  3.953376429370E-01
C36 -3.636591136417E-01  1.977630434118E-01 -3.953376429370E-01
C37  3.204715734226E-01 -2.788056195942E-01  4.774564530652E-01
C38 -3.204715734226E-01  2.788056195942E-01 -4.774564530652E-01
C39  3.238257203460E-01 -1.519993921656E-02  4.010665040745E-01
C40 -3.238257203460E-01  1.519993921656E-02 -4.010665040745E-01
C41  1.046207496316E-02 -2.427198051345E-01  3.359754885169E-01
C42 -1.046207496316E-02  2.427198051345E-01 -3.359754885169E-01
C43 -8.260718812229E-02 -3.339705363952E-01  4.080406938093E-01
C44  8.260718812229E-02  3.339705363952E-01 -4.080406938093E-01
C45 -6.949765860060E-02 -6.547747989881E-02  3.371402768134E-01
C46  6.949765860060E-02  6.547747989881E-02 -3.371402768134E-01
H47  1.062859776391E-01  2.506727145734E-02  1.423743569080E-01
H48 -1.062859776391E-01 -2.506727145734E-02 -1.423743569080E-01
H49 -1.955355766603E-01  1.629838360918E-01  1.504275640207E-01
H50  1.955355766603E-01 -1.629838360918E-01 -1.504275640207E-01
H51 -4.070915935344E-01  3.429847250609E-01  8.964031176946E-02
H52  4.070915935344E-01 -3.429847250609E-01 -8.964031176946E-02
H53 -3.103852314523E-01  4.705584405297E-01 -4.237785268031E-02
H54  3.103852314523E-01 -4.705584405297E-01  4.237785268031E-02
H55 -6.192698721309E-03  4.047263946477E-01 -1.179253696748E-01
H56  6.192698721309E-03 -4.047263946477E-01  1.179253696748E-01
H57  2.937071023445E-01  2.581615845551E-01 -1.266134629115E-01
H58 -2.937071023445E-01 -2.581615845551E-01  1.266134629115E-01
H59  2.912685269965E-01  4.386125912869E-01  3.669388644409E-01
H60 -2.912685269965E-01 -4.386125912869E-01 -3.669388644409E-01
H61  3.007368099029E-01  4.806556506926E-01  1.893358841894E-01
H62 -3.007368099029E-01 -4.806556506926E-01 -1.893358841894E-01
H63  1.227026108356E-01  4.326976513864E-01  2.635988787021E-01
H64 -1.227026108356E-01 -4.326976513864E-01 -2.635988787021E-01
H65  3.162672588302E-01  2.936474927196E-01  2.395958591632E-01
H66 -3.162672588302E-01 -2.936474927196E-01 -2.395958591632E-01
H67 -4.161112457776E-01  3.222596182485E-01  2.881918892208E-01
H68  4.161112457776E-01 -3.222596182485E-01 -2.881918892208E-01
H69 -3.996109134720E-01  4.961904623455E-01  3.349043941681E-01
H70  3.996109134720E-01 -4.961904623455E-01 -3.349043941681E-01
H71 -3.988570012531E-01 -4.981328461738E-01  2.328144447504E-01
H72  3.988570012531E-01  4.981328461738E-01 -2.328144447504E-01
H73 -4.945335237859E-01 -2.283912347885E-01  3.713407092805E-01
H74  4.945335237859E-01  2.283912347885E-01 -3.713407092805E-01
H75  3.908785795865E-01 -2.364719941884E-01 -4.821273500570E-01
H76 -3.908785795865E-01  2.364719941884E-01  4.821273500570E-01
H77  3.555309921139E-01 -4.085707948511E-01  4.749886919084E-01
H78 -3.555309921139E-01  4.085707948511E-01 -4.749886919084E-01
H79  1.805334641628E-01 -2.523155213434E-01 -4.951942516176E-01
H80 -1.805334641628E-01  2.523155213434E-01  4.951942516176E-01
H81  1.843340497850E-01  2.576880130621E-02  4.245094783898E-01
H82 -1.843340497850E-01 -2.576880130621E-02 -4.245094783898E-01
H83  3.610594944493E-01  4.330797269531E-02  3.433112179433E-01
H84 -3.610594944493E-01 -4.330797269531E-02 -3.433112179433E-01
H85  3.951707041986E-01  2.661924067787E-02  4.412600098159E-01
H86 -3.951707041986E-01 -2.661924067787E-02 -4.412600098159E-01
H87 -1.149209529381E-02 -2.923692487632E-01  2.825667970173E-01
H88  1.149209529381E-02  2.923692487632E-01 -2.825667970173E-01
H89 -2.919114063790E-02 -4.608680915725E-01  4.080240337586E-01
H90  2.919114063790E-02  4.608680915725E-01 -4.080240337586E-01
H91 -2.228306466717E-01 -3.247832829546E-01  4.093551278184E-01
H92  2.228306466717E-01  3.247832829546E-01 -4.093551278184E-01
H93 -7.213551631727E-02 -2.856294963379E-01  4.635795065044E-01
H94  7.213551631727E-02  2.856294963379E-01 -4.635795065044E-01
H95  4.130001142683E-05  2.415812442457E-03  2.881392970570E-01
H96 -4.130001142683E-05 -2.415812442457E-03 -2.881392970570E-01
H97 -6.685308655533E-02 -1.033713517528E-02  3.922201766246E-01
H98  6.685308655533E-02  1.033713517528E-02 -3.922201766246E-01
H99 -2.071667296916E-01 -5.118580581181E-02  3.329383976189E-01
H100  2.071667296916E-01  5.118580581181E-02 -3.329383976189E-01


#===END

data_OPT_STEP_16

_symmetry_space_group_name_H-M 'P 1'
_cell_length_a      7.96820985
_cell_length_b      8.57939847
_cell_length_c     17.37833381
_cell_angle_alpha   86.286857
_cell_angle_beta   76.532064
_cell_angle_gamma   80.455944

loop_
_atom_site_label
_atom_site_fract_x
_atom_site_fract_y
_atom_site_fract_z
SI1  2.627725499081E-01 -2.819142361721E-01  3.187029935892E-01
SI2 -2.627725499081E-01  2.819142361721E-01 -3.187029935892E-01
C3  4.462416155816E-01 -6.628265331588E-02  7.763866507901E-02
C4 -4.462416155816E-01  6.628265331588E-02 -7.763866507901E-02
C5  3.237516187404E-01  3.776892585277E-02  4.354865788845E-02
C6 -3.237516187404E-01 -3.776892585277E-02 -4.354865788845E-02
C7  1.481770842326E-01  7.607966245289E-02  8.399936791612E-02
C8 -1.481770842326E-01 -7.607966245289E-02 -8.399936791612E-02
C9  2.688297900368E-02  1.764995837702E-01  5.139001908766E-02
C10 -2.688297900368E-02 -1.764995837702E-01 -5.139001908766E-02
C11 -1.504669857820E-01  2.186717607169E-01  9.311726772678E-02
C12  1.504669857820E-01 -2.186717607169E-01 -9.311726772678E-02
C13 -2.668350500943E-01  3.171515583043E-01  5.946213890331E-02
C14  2.668350500943E-01 -3.171515583043E-01 -5.946213890331E-02
C15 -2.134527090915E-01  3.830814243274E-01 -1.793578722567E-02
C16  2.134527090915E-01 -3.830814243274E-01  1.793578722567E-02
C17 -4.549596302593E-02  3.487402816748E-01 -5.947079080632E-02
C18  4.549596302593E-02 -3.487402816749E-01  5.947079080632E-02
C19  8.119151968663E-02  2.441664227114E-01 -2.693364548136E-02
C20 -8.119151968663E-02 -2.441664227114E-01  2.693364548136E-02
C21  2.538439672750E-01  2.080482709221E-01 -6.735628758745E-02
C22 -2.538439672750E-01 -2.080482709221E-01  6.735628758745E-02
C23  3.784337931348E-01  1.059671909406E-01 -3.491692165519E-02
C24 -3.784337931348E-01 -1.059671909406E-01  3.491692165519E-02
C25  3.922200333832E-01 -1.316664244752E-01  1.548183502185E-01
C26 -3.922200333832E-01  1.316664244752E-01 -1.548183502185E-01
C27  3.440033809208E-01 -1.873696013124E-01  2.211064185906E-01
C28 -3.440033809208E-01  1.873696013124E-01 -2.211064185906E-01
C29  3.424695758987E-01  4.944285686206E-01  3.089924756052E-01
C30 -3.424695758987E-01 -4.944285686206E-01 -3.089924756052E-01
C31  2.672831392150E-01  4.250528284713E-01  2.472022817523E-01
C32 -2.672831392150E-01 -4.250528284713E-01 -2.472022817523E-01
C33 -4.572544838541E-01  4.541082374024E-01  2.902164950538E-01
C34  4.572544838541E-01 -4.541082374024E-01 -2.902164950538E-01
C35  3.637723155151E-01 -1.996744253740E-01  3.947596231128E-01
C36 -3.637723155151E-01  1.996744253740E-01 -3.947596231128E-01
C37  3.191845479737E-01 -2.794665052439E-01  4.771605453323E-01
C38 -3.191845479737E-01  2.794665052439E-01 -4.771605453323E-01
C39  3.261944311823E-01 -1.859170712193E-02  3.995102350993E-01
C40 -3.261944311823E-01  1.859170712193E-02 -3.995102350993E-01
C41  1.198814619021E-02 -2.420918748930E-01  3.366423943185E-01
C42 -1.198814619021E-02  2.420918748930E-01 -3.366423943185E-01
C43 -8.094891021413E-02 -3.335220589968E-01  4.085817223226E-01
C44  8.094891021413E-02  3.335220589968E-01 -4.085817223226E-01
C45 -6.725248708514E-02 -6.603564493380E-02  3.382915510041E-01
C46  6.725248708514E-02  6.603564493380E-02 -3.382915510041E-01
H47  1.079203454716E-01  2.519009912464E-02  1.426676586514E-01
H48 -1.079203454716E-01 -2.519009912464E-02 -1.426676586514E-01
H49 -1.904904904547E-01  1.685430056437E-01  1.519165639166E-01
H50  1.904904904547E-01 -1.685430056437E-01 -1.519165639166E-01
H51 -4.013610456953E-01  3.468283874245E-01  9.132916383916E-02
H52  4.013610456953E-01 -3.468283874245E-01 -9.132916383916E-02
H53 -3.079297249878E-01  4.637307807225E-01 -4.264561661565E-02
H54  3.079297249878E-01 -4.637307807225E-01  4.264561661565E-02
H55 -3.767694101782E-03  4.029205639321E-01 -1.174215531752E-01
H56  3.767694101782E-03 -4.029205639321E-01  1.174215531752E-01
H57  2.950247914490E-01  2.575506864469E-01 -1.263862131126E-01
H58 -2.950247914490E-01 -2.575506864469E-01  1.263862131126E-01
H59  2.920145413195E-01  4.401398655268E-01  3.669835989973E-01
H60 -2.920145413195E-01 -4.401398655268E-01 -3.669835989973E-01
H61  3.028953000609E-01  4.847794367260E-01  1.894869457631E-01
H62 -3.028953000609E-01 -4.847794367260E-01 -1.894869457631E-01
H63  1.248101181559E-01  4.373891822997E-01  2.637581722236E-01
H64 -1.248101181559E-01 -4.373891822997E-01 -2.637581722236E-01
H65  3.173478902351E-01  2.986982793128E-01  2.397990372123E-01
H66 -3.173478902351E-01 -2.986982793128E-01 -2.397990372123E-01
H67 -4.160431733321E-01  3.257547872868E-01  2.878723924103E-01
H68  4.160431733321E-01 -3.257547872868E-01 -2.878723924103E-01
H69 -4.004951722206E-01  4.973703283828E-01  3.346534188171E-01
H70  4.004951722206E-01 -4.973703283828E-01 -3.346534188171E-01
H71 -3.992496082668E-01 -4.953723588784E-01  2.326551077929E-01
H72  3.992496082668E-01  4.953723588784E-01 -2.326551077929E-01
H73 -4.950934658411E-01 -2.318331233466E-01  3.707778286948E-01
H74  4.950934658411E-01  2.318331233466E-01 -3.707778286948E-01
H75  3.904733686586E-01 -2.392814044555E-01 -4.829179497189E-01
H76 -3.904733686586E-01  2.392814044555E-01  4.829179497189E-01
H77  3.518878656843E-01 -4.083763429420E-01  4.750614770643E-01
H78 -3.518878656843E-01  4.083763429420E-01 -4.750614770643E-01
H79  1.799598445669E-01 -2.508215176256E-01 -4.952884509942E-01
H80 -1.799598445669E-01  2.508215176256E-01  4.952884509942E-01
H81  1.875439881034E-01  2.392801234919E-02  4.228712810866E-01
H82 -1.875439881034E-01 -2.392801234919E-02 -4.228712810866E-01
H83  3.645568956799E-01  3.842211024255E-02  3.414117945847E-01
H84 -3.645568956799E-01 -3.842211024255E-02 -3.414117945847E-01
H85  3.977049471108E-01  2.201386293607E-02  4.392415296309E-01
H86 -3.977049471108E-01 -2.201386293607E-02 -4.392415296309E-01
H87 -9.792261980258E-03 -2.898010928304E-01  2.831896864067E-01
H88  9.792261980258E-03  2.898010928304E-01 -2.831896864067E-01
H89 -2.792744614123E-02 -4.595326384221E-01  4.082302942638E-01
H90  2.792744614123E-02  4.595326384221E-01 -4.082302942638E-01
H91 -2.204526546660E-01 -3.234411669750E-01  4.100765324648E-01
H92  2.204526546660E-01  3.234411669750E-01 -4.100765324648E-01
H93 -7.054130487549E-02 -2.870457873154E-01  4.641409423983E-01
H94  7.054130487549E-02  2.870457873154E-01 -4.641409423983E-01
H95  1.556995137154E-03  1.775151976725E-03  2.891003519508E-01
H96 -1.556995137154E-03 -1.775151976725E-03 -2.891003519508E-01
H97 -6.372865398059E-02 -1.256857621873E-02  3.932659441543E-01
H98  6.372865398059E-02  1.256857621873E-02 -3.932659441543E-01
H99 -2.046523941114E-01 -5.095188893559E-02  3.348241703802E-01
H100  2.046523941114E-01  5.095188893559E-02 -3.348241703802E-01


#===END

data_OPT_STEP_17

_symmetry_space_group_name_H-M 'P 1'
_cell_length_a      7.93256300
_cell_length_b      8.51505522
_cell_length_c     17.35661203
_cell_angle_alpha   86.617706
_cell_angle_beta   76.807552
_cell_angle_gamma   80.681683

loop_
_atom_site_label
_atom_site_fract_x
_atom_site_fract_y
_atom_site_fract_z
SI1  2.624599124976E-01 -2.819673974050E-01  3.184393182239E-01
SI2 -2.624599124976E-01  2.819673974050E-01 -3.184393182239E-01
C3  4.463714390091E-01 -6.611666312941E-02  7.770764232321E-02
C4 -4.463714390091E-01  6.611666312941E-02 -7.770764232321E-02
C5  3.234550088317E-01  3.821708034266E-02  4.353868995671E-02
C6 -3.234550088317E-01 -3.821708034266E-02 -4.353868995671E-02
C7  1.476258982589E-01  7.729654284817E-02  8.399488564637E-02
C8 -1.476258982589E-01 -7.729654284817E-02 -8.399488564637E-02
C9  2.576200097563E-02  1.777500833685E-01  5.129430478291E-02
C10 -2.576200097563E-02 -1.777500833685E-01 -5.129430478291E-02
C11 -1.528835934273E-01  2.176295154688E-01  9.251480327362E-02
C12  1.528835934273E-01 -2.176295154688E-01 -9.251480327362E-02
C13 -2.694986519702E-01  3.169041445653E-01  5.885627989228E-02
C14  2.694986519702E-01 -3.169041445653E-01 -5.885627989228E-02
C15 -2.153349333875E-01  3.853587070540E-01 -1.813743779412E-02
C16  2.153349333875E-01 -3.853587070540E-01  1.813743779412E-02
C17 -4.707631276715E-02  3.505965216415E-01 -5.963462487541E-02
C18  4.707631276715E-02 -3.505965216415E-01  5.963462487541E-02
C19  8.001667770150E-02  2.455138993442E-01 -2.703232342524E-02
C20 -8.001667770150E-02 -2.455138993442E-01  2.703232342524E-02
C21  2.527167135372E-01  2.080910830287E-01 -6.755117573247E-02
C22 -2.527167135372E-01 -2.080910830287E-01  6.755117573247E-02
C23  3.778285375625E-01  1.057730871745E-01 -3.505837051325E-02
C24 -3.778285375625E-01 -1.057730871745E-01  3.505837051325E-02
C25  3.925925361418E-01 -1.311823637765E-01  1.549162894257E-01
C26 -3.925925361418E-01  1.311823637765E-01 -1.549162894257E-01
C27  3.443642508522E-01 -1.870938032958E-01  2.210653257517E-01
C28 -3.443642508522E-01  1.870938032958E-01 -2.210653257517E-01
C29  3.418821390191E-01  4.927099985934E-01  3.087769730877E-01
C30 -3.418821390191E-01 -4.927099985934E-01 -3.087769730877E-01
C31  2.659936401426E-01  4.217531806429E-01  2.469564241982E-01
C32 -2.659936401426E-01 -4.217531806429E-01 -2.469564241982E-01
C33 -4.572724036683E-01  4.521573512418E-01  2.902407791949E-01
C34  4.572724036683E-01 -4.521573512418E-01 -2.902407791949E-01
C35  3.635720357977E-01 -1.983351735798E-01  3.950713010979E-01
C36 -3.635720357977E-01  1.983351735798E-01 -3.950713010979E-01
C37  3.200977163632E-01 -2.792480850170E-01  4.772019714959E-01
C38 -3.200977163632E-01  2.792480850170E-01 -4.772019714959E-01
C39  3.243271090293E-01 -1.609400036427E-02  4.005999313036E-01
C40 -3.243271090293E-01  1.609400036427E-02 -4.005999313036E-01
C41  1.086264732157E-02 -2.426168930548E-01  3.359466037596E-01
C42 -1.086264732157E-02  2.426168930548E-01 -3.359466037596E-01
C43 -8.215377166008E-02 -3.339018369004E-01  4.079678747383E-01
C44  8.215377166008E-02  3.339018369004E-01 -4.079678747383E-01
C45 -6.880519364554E-02 -6.558144050976E-02  3.372243512559E-01
C46  6.880519364554E-02  6.558144050976E-02 -3.372243512559E-01
H47  1.070931150475E-01  2.557897515002E-02  1.424923574966E-01
H48 -1.070931150475E-01 -2.557897515002E-02 -1.424923574966E-01
H49 -1.935895751170E-01  1.653670394684E-01  1.509355534036E-01
H50  1.935895751170E-01 -1.653670394684E-01 -1.509355534036E-01
H51 -4.050483490147E-01  3.446994464942E-01  9.024443709582E-02
H52  4.050483490147E-01 -3.446994464942E-01 -9.024443709582E-02
H53 -3.098453163473E-01  4.679052342744E-01 -4.253863155531E-02
H54  3.098453163473E-01 -4.679052342744E-01  4.253863155531E-02
H55 -5.551916215800E-03  4.043108977422E-01 -1.176975095849E-01
H56  5.551916215800E-03 -4.043108977422E-01  1.176975095849E-01
H57  2.939125173556E-01  2.577946815840E-01 -1.265473762235E-01
H58 -2.939125173556E-01 -2.577946815840E-01  1.265473762235E-01
H59  2.913180305198E-01  4.387619615088E-01  3.667982868052E-01
H60 -2.913180305198E-01 -4.387619615088E-01 -3.667982868052E-01
H61  3.012266091062E-01  4.814116377176E-01  1.892377590695E-01
H62 -3.012266091062E-01 -4.814116377176E-01 -1.892377590695E-01
H63  1.231230646900E-01  4.336791681207E-01  2.634652819505E-01
H64 -1.231230646900E-01 -4.336791681207E-01 -2.634652819505E-01
H65  3.163124259624E-01  2.945738499587E-01  2.395257156785E-01
H66 -3.163124259624E-01 -2.945738499587E-01 -2.395257156785E-01
H67 -4.162849249499E-01  3.229037304023E-01  2.879904053416E-01
H68  4.162849249499E-01 -3.229037304023E-01 -2.879904053416E-01
H69 -4.000437344820E-01  4.963477579968E-01  3.347708491478E-01
H70  4.000437344820E-01 -4.963477579968E-01 -3.347708491478E-01
H71 -3.991019474744E-01 -4.975357626870E-01  2.327062823768E-01
H72  3.991019474744E-01  4.975357626870E-01 -2.327062823768E-01
H73 -4.948393579834E-01 -2.293169164878E-01  3.710807634412E-01
H74  4.948393579834E-01  2.293169164878E-01 -3.710807634412E-01
H75  3.909357784253E-01 -2.376562161695E-01 -4.825202757837E-01
H76 -3.909357784253E-01  2.376562161695E-01  4.825202757837E-01
H77  3.543743452803E-01 -4.088626701063E-01  4.747375116554E-01
H78 -3.543743452803E-01  4.088626701063E-01 -4.747375116554E-01
H79  1.804153645588E-01 -2.521327088495E-01 -4.953600247718E-01
H80 -1.804153645588E-01  2.521327088495E-01  4.953600247718E-01
H81  1.851156822776E-01  2.522867392417E-02  4.240500087015E-01
H82 -1.851156822776E-01 -2.522867392417E-02 -4.240500087015E-01
H83  3.617611107873E-01  4.208918679052E-02  3.427764908313E-01
H84 -3.617611107873E-01 -4.208918679052E-02 -3.427764908313E-01
H85  3.958181404517E-01  2.544107712638E-02  4.406478731333E-01
H86 -3.958181404517E-01 -2.544107712638E-02 -4.406478731333E-01
H87 -1.107719561095E-02 -2.918500293464E-01  2.825315928039E-01
H88  1.107719561095E-02  2.918500293464E-01 -2.825315928039E-01
H89 -2.904042309453E-02 -4.606865930811E-01  4.078081110483E-01
H90  2.904042309452E-02  4.606865930811E-01 -4.078081110483E-01
H91 -2.221969886226E-01 -3.242827532035E-01  4.093884057972E-01
H92  2.221969886226E-01  3.242827532035E-01 -4.093884057972E-01
H93 -7.143320588519E-02 -2.861093583858E-01  4.635006625240E-01
H94  7.143320588519E-02  2.861093583858E-01 -4.635006625240E-01
H95  5.218280900449E-04  2.285874620453E-03  2.881656388341E-01
H96 -5.218280900449E-04 -2.285874620453E-03 -2.881656388341E-01
H97 -6.584890304910E-02 -1.076916019461E-02  3.922571848779E-01
H98  6.584890304910E-02  1.076916019461E-02 -3.922571848779E-01
H99 -2.064105490101E-01 -5.111799505373E-02  3.332298392463E-01
H100  2.064105490101E-01  5.111799505373E-02 -3.332298392463E-01


#===END

data_OPT_STEP_18

_symmetry_space_group_name_H-M 'P 1'
_cell_length_a      7.94683945
_cell_length_b      8.52914361
_cell_length_c     17.34149169
_cell_angle_alpha   86.552906
_cell_angle_beta   76.706520
_cell_angle_gamma   80.616220

loop_
_atom_site_label
_atom_site_fract_x
_atom_site_fract_y
_atom_site_fract_z
SI1  2.619989201448E-01 -2.821535398664E-01  3.184653554685E-01
SI2 -2.619989201448E-01  2.821535398664E-01 -3.184653554685E-01
C3  4.465707769224E-01 -6.568670215945E-02  7.779632714679E-02
C4 -4.465707769224E-01  6.568670215945E-02 -7.779632714679E-02
C5  3.235858854898E-01  3.793426153548E-02  4.351913345273E-02
C6 -3.235858854898E-01 -3.793426153548E-02 -4.351913345273E-02
C7  1.482780703942E-01  7.767054235445E-02  8.418840483535E-02
C8 -1.482780703942E-01 -7.767054235445E-02 -8.418840483535E-02
C9  2.670211316757E-02  1.782484657588E-01  5.153605904822E-02
C10 -2.670211316757E-02 -1.782484657588E-01 -5.153605904822E-02
C11 -1.522918413817E-01  2.164131270628E-01  9.253437623227E-02
C12  1.522918413817E-01 -2.164131270628E-01 -9.253437623227E-02
C13 -2.686052306695E-01  3.161104467771E-01  5.901265379122E-02
C14  2.686052306695E-01 -3.161104467771E-01 -5.901265379122E-02
C15 -2.140688004364E-01  3.858420690978E-01 -1.776716229804E-02
C16  2.140688004364E-01 -3.858420690978E-01  1.776716229804E-02
C17 -4.610575493328E-02  3.507504630774E-01 -5.940968257939E-02
C18  4.610575493328E-02 -3.507504630774E-01  5.940968257939E-02
C19  8.086286333109E-02  2.458204417558E-01 -2.685454499048E-02
C20 -8.086286333109E-02 -2.458204417558E-01  2.685454499048E-02
C21  2.529722227686E-01  2.075163097927E-01 -6.762674317940E-02
C22 -2.529722227686E-01 -2.075163097927E-01  6.762674317940E-02
C23  3.777531747834E-01  1.050635092008E-01 -3.517898003097E-02
C24 -3.777531747834E-01 -1.050635092008E-01  3.517898003097E-02
C25  3.925293405925E-01 -1.312714888346E-01  1.549276268632E-01
C26 -3.925293405925E-01  1.312714888346E-01 -1.549276268632E-01
C27  3.441856799716E-01 -1.872983579045E-01  2.210323923083E-01
C28 -3.441856799716E-01  1.872983579045E-01 -2.210323923083E-01
C29  3.413456788701E-01  4.928949109794E-01  3.088982770164E-01
C30 -3.413456788701E-01 -4.928949109794E-01 -3.088982770164E-01
C31  2.659451243775E-01  4.221764100855E-01  2.469910548297E-01
C32 -2.659451243775E-01 -4.221764100855E-01 -2.469910548297E-01
C33 -4.580771732643E-01  4.522969201761E-01  2.904302944385E-01
C34  4.580771732643E-01 -4.522969201761E-01 -2.904302944385E-01
C35  3.629486739189E-01 -1.988256923236E-01  3.950401699397E-01
C36 -3.629486739189E-01  1.988256923236E-01 -3.950401699397E-01
C37  3.192165283552E-01 -2.793161457901E-01  4.773752407950E-01
C38 -3.192165283552E-01  2.793161457901E-01 -4.773752407950E-01
C39  3.245158525229E-01 -1.684030201037E-02  4.002639047957E-01
C40 -3.245158525229E-01  1.684030201037E-02 -4.002639047957E-01
C41  1.081323983420E-02 -2.424905033336E-01  3.359765946446E-01
C42 -1.081323983420E-02  2.424905033336E-01 -3.359765946446E-01
C43 -8.222540127544E-02 -3.342159870366E-01  4.079231719106E-01
C44  8.222540127544E-02  3.342159870366E-01 -4.079231719106E-01
C45 -6.865918551543E-02 -6.560894481468E-02  3.375572439385E-01
C46  6.865918551543E-02  6.560894481468E-02 -3.375572439385E-01
H47  1.076674766168E-01  2.567730872475E-02  1.426670744287E-01
H48 -1.076674766168E-01 -2.567730872475E-02 -1.426670744287E-01
H49 -1.932898587778E-01  1.631715688638E-01  1.507940798733E-01
H50  1.932898587778E-01 -1.631715688638E-01 -1.507940798733E-01
H51 -4.036861512735E-01  3.445285004295E-01  9.064298008835E-02
H52  4.036861512735E-01 -3.445285004295E-01 -9.064298008835E-02
H53 -3.088951113368E-01  4.664568512167E-01 -4.252238474535E-02
H54  3.088951113368E-01 -4.664568512167E-01  4.252238474535E-02
H55 -4.688035312242E-03  4.043080251372E-01 -1.175095576438E-01
H56  4.688035312242E-03 -4.043080251372E-01  1.175095576438E-01
H57  2.939040569965E-01  2.566146743376E-01 -1.267588942713E-01
H58 -2.939040569965E-01 -2.566146743376E-01  1.267588942713E-01
H59  2.905543209172E-01  4.390079382703E-01  3.669790459161E-01
H60 -2.905543209172E-01 -4.390079382703E-01 -3.669790459161E-01
H61  3.015777667518E-01  4.816136374558E-01  1.891711874248E-01
H62 -3.015777667518E-01 -4.816136374558E-01 -1.891711874248E-01
H63  1.232189538914E-01  4.343765888977E-01  2.634414227923E-01
H64 -1.232189538914E-01 -4.343765888977E-01 -2.634414227923E-01
H65  3.160955657046E-01  2.951304037704E-01  2.396822907288E-01
H66 -3.160955657046E-01 -2.951304037704E-01 -2.396822907288E-01
H67 -4.170724302170E-01  3.232340269806E-01  2.879805897441E-01
H68  4.170724302170E-01 -3.232340269806E-01 -2.879805897441E-01
H69 -4.013208835895E-01  4.959192226778E-01  3.351762973708E-01
H70  4.013208835895E-01 -4.959192226778E-01 -3.351762973708E-01
H71 -3.996414507940E-01 -4.970462010764E-01  2.329401117315E-01
H72  3.996414507940E-01  4.970462010764E-01 -2.329401117315E-01
H73 -4.956880407992E-01 -2.303399959982E-01  3.709867290675E-01
H74  4.956880407992E-01  2.303399959982E-01 -3.709867290675E-01
H75  3.908128704642E-01 -2.385575185510E-01 -4.825607707160E-01
H76 -3.908128704642E-01  2.385575185510E-01  4.825607707160E-01
H77  3.523985285400E-01 -4.088142306321E-01  4.749814178707E-01
H78 -3.523985285400E-01  4.088142306321E-01 -4.749814178707E-01
H79  1.798756515939E-01 -2.512029984816E-01 -4.949391982776E-01
H80 -1.798756515939E-01  2.512029984816E-01  4.949391982776E-01
H81  1.856847168684E-01  2.506444993262E-02  4.239569316977E-01
H82 -1.856847168684E-01 -2.506444993262E-02 -4.239569316977E-01
H83  3.618352911044E-01  4.075507797094E-02  3.422150850900E-01
H84 -3.618352911044E-01 -4.075507797094E-02 -3.422150850900E-01
H85  3.965700633839E-01  2.452618276506E-02  4.399767596210E-01
H86 -3.965700633839E-01 -2.452618276506E-02 -4.399767596210E-01
H87 -1.098243616617E-02 -2.910558762364E-01  2.824035828405E-01
H88  1.098243616617E-02  2.910558762364E-01 -2.824035828405E-01
H89 -2.957756074521E-02 -4.609751585512E-01  4.073557975977E-01
H90  2.957756074521E-02  4.609751585512E-01 -4.073557975977E-01
H91 -2.221773094424E-01 -3.238305716794E-01  4.095233648098E-01
H92  2.221773094424E-01  3.238305716794E-01 -4.095233648098E-01
H93 -7.107247510872E-02 -2.875048511664E-01  4.636164104538E-01
H94  7.107247510872E-02  2.875048511664E-01 -4.636164104538E-01
H95  8.794257810449E-04  2.605728833366E-03  2.886079331701E-01
H96 -8.794257810449E-04 -2.605728833366E-03 -2.886079331701E-01
H97 -6.609395423808E-02 -1.147847682877E-02  3.927855029468E-01
H98  6.609395423808E-02  1.147847682877E-02 -3.927855029468E-01
H99 -2.059791177659E-01 -5.095065390146E-02  3.334701818255E-01
H100  2.059791177659E-01  5.095065390146E-02 -3.334701818255E-01


#===END

data_OPT_STEP_19

_symmetry_space_group_name_H-M 'P 1'
_cell_length_a      7.96044014
_cell_length_b      8.54384492
_cell_length_c     17.31784160
_cell_angle_alpha   86.526230
_cell_angle_beta   76.626274
_cell_angle_gamma   80.544205

loop_
_atom_site_label
_atom_site_fract_x
_atom_site_fract_y
_atom_site_fract_z
SI1  2.615628795726E-01 -2.826455602606E-01  3.184935408525E-01
SI2 -2.615628795726E-01  2.826455602606E-01 -3.184935408525E-01
C3  4.464381179909E-01 -6.609240517315E-02  7.775831447494E-02
C4 -4.464381179909E-01  6.609240517315E-02 -7.775831447494E-02
C5  3.238618441362E-01  3.814432166974E-02  4.363957701587E-02
C6 -3.238618441362E-01 -3.814432166974E-02 -4.363957701587E-02
C7  1.485284092724E-01  7.729858251493E-02  8.429865925776E-02
C8 -1.485284092724E-01 -7.729858251493E-02 -8.429865925776E-02
C9  2.718945294102E-02  1.779425070932E-01  5.166031342403E-02
C10 -2.718945294102E-02 -1.779425070932E-01 -5.166031342403E-02
C11 -1.516452263948E-01  2.160413311678E-01  9.273525999411E-02
C12  1.516452263948E-01 -2.160413311678E-01 -9.273525999411E-02
C13 -2.678351414323E-01  3.156233439663E-01  5.920979659576E-02
C14  2.678351414323E-01 -3.156233439663E-01 -5.920979659576E-02
C15 -2.133205323595E-01  3.853560323232E-01 -1.762915782465E-02
C16  2.133205323595E-01 -3.853560323232E-01  1.762915782465E-02
C17 -4.511199314124E-02  3.514107909456E-01 -5.916350522224E-02
C18  4.511199314124E-02 -3.514107909456E-01  5.916350522224E-02
C19  8.152004686991E-02  2.459716239405E-01 -2.672466780016E-02
C20 -8.152004686991E-02 -2.459716239405E-01  2.672466780016E-02
C21  2.532872590546E-01  2.072333152738E-01 -6.766170103236E-02
C22 -2.532872590546E-01 -2.072333152738E-01  6.766170103236E-02
C23  3.778685830940E-01  1.048871882214E-01 -3.519285773763E-02
C24 -3.778685830940E-01 -1.048871882214E-01  3.519285773763E-02
C25  3.922679401984E-01 -1.319613002421E-01  1.548717223069E-01
C26 -3.922679401984E-01  1.319613002421E-01 -1.548717223069E-01
C27  3.439142309296E-01 -1.880197428325E-01  2.209662289634E-01
C28 -3.439142309296E-01  1.880197428325E-01 -2.209662289634E-01
C29  3.407986389578E-01  4.927604339463E-01  3.090095995998E-01
C30 -3.407986389578E-01 -4.927604339463E-01 -3.090095995998E-01
C31  2.658272681943E-01  4.222035054170E-01  2.470034607487E-01
C32 -2.658272681943E-01 -4.222035054170E-01 -2.470034607487E-01
C33 -4.588786302289E-01  4.520167149600E-01  2.905887584233E-01
C34  4.588786302289E-01 -4.520167149600E-01 -2.905887584233E-01
C35  3.624639976716E-01 -1.994634583679E-01  3.950438702434E-01
C36 -3.624639976716E-01  1.994634583679E-01 -3.950438702434E-01
C37  3.184362132891E-01 -2.791922195601E-01  4.776735410542E-01
C38 -3.184362132891E-01  2.791922195601E-01 -4.776735410542E-01
C39  3.248675442694E-01 -1.769986674302E-02  3.999187507090E-01
C40 -3.248675442694E-01  1.769986674302E-02 -3.999187507090E-01
C41  1.072714326371E-02 -2.426430793916E-01  3.360583836433E-01
C42 -1.072714326371E-02  2.426430793916E-01 -3.360583836433E-01
C43 -8.230633855675E-02 -3.343955896862E-01  4.080601606473E-01
C44  8.230633855675E-02  3.343955896862E-01 -4.080601606473E-01
C45 -6.855421343266E-02 -6.597000006739E-02  3.378053235702E-01
C46  6.855421343266E-02  6.597000006739E-02 -3.378053235702E-01
H47  1.074498335774E-01  2.403723635533E-02  1.425832360029E-01
H48 -1.074498335774E-01 -2.403723635533E-02 -1.425832360029E-01
H49 -1.927866681082E-01  1.624146263347E-01  1.509764160058E-01
H50  1.927866681082E-01 -1.624146263347E-01 -1.509764160058E-01
H51 -4.031459936349E-01  3.427528640692E-01  9.071760663762E-02
H52  4.031459936349E-01 -3.427528640692E-01 -9.071760663762E-02
H53 -3.078904900721E-01  4.661894148961E-01 -4.237275376447E-02
H54  3.078904900721E-01 -4.661894148961E-01  4.237275376447E-02
H55 -3.393747372207E-03  4.059318255820E-01 -1.171306262633E-01
H56  3.393747372207E-03 -4.059318255820E-01  1.171306262633E-01
H57  2.945550453538E-01  2.572708712396E-01 -1.266860092888E-01
H58 -2.945550453538E-01 -2.572708712396E-01  1.266860092888E-01
H59  2.898031580368E-01  4.390914882418E-01  3.671939032425E-01
H60 -2.898031580368E-01 -4.390914882418E-01 -3.671939032425E-01
H61  3.017272096106E-01  4.813755522035E-01  1.890624512591E-01
H62 -3.017272096106E-01 -4.813755522035E-01 -1.890624512591E-01
H63  1.232546660256E-01  4.346200375567E-01  2.634175677286E-01
H64 -1.232546660256E-01 -4.346200375567E-01 -2.634175677286E-01
H65  3.159014197854E-01  2.953294421287E-01  2.397776957985E-01
H66 -3.159014197854E-01 -2.953294421287E-01 -2.397776957985E-01
H67 -4.178699686667E-01  3.231775257407E-01  2.879351349449E-01
H68  4.178699686667E-01 -3.231775257407E-01 -2.879351349449E-01
H69 -4.025153765789E-01  4.950997869689E-01  3.355632104353E-01
H70  4.025153765789E-01 -4.950997869689E-01 -3.355632104353E-01
H71 -4.002306490278E-01 -4.970816545067E-01  2.331171681612E-01
H72  4.002306490278E-01  4.970816545067E-01 -2.331171681612E-01
H73 -4.963780649902E-01 -2.315920150451E-01  3.709282555948E-01
H74  4.963780649902E-01  2.315920150451E-01 -3.709282555948E-01
H75  3.905417070946E-01 -2.389236978860E-01 -4.824312210916E-01
H76 -3.905417070946E-01  2.389236978860E-01  4.824312210916E-01
H77  3.507199310190E-01 -4.085479712284E-01  4.754655750225E-01
H78 -3.507199310190E-01  4.085479712284E-01 -4.754655750225E-01
H79  1.793880983261E-01 -2.501380036619E-01 -4.944509413001E-01
H80 -1.793880983261E-01  2.501380036619E-01  4.944509413001E-01
H81  1.863745652295E-01  2.487928600712E-02  4.238355884555E-01
H82 -1.863745652295E-01 -2.487928600712E-02 -4.238355884555E-01
H83  3.620999145465E-01  3.918192880723E-02  3.416064127417E-01
H84 -3.620999145465E-01 -3.918192880723E-02 -3.416064127417E-01
H85  3.974240774029E-01  2.357423392531E-02  4.393347516653E-01
H86 -3.974240774029E-01 -2.357423392531E-02 -4.393347516653E-01
H87 -1.101799670349E-02 -2.907926823238E-01  2.823713945218E-01
H88  1.101799670349E-02  2.907926823238E-01 -2.823713945218E-01
H89 -3.001603953846E-02 -4.610558565623E-01  4.072450496923E-01
H90  3.001603953846E-02  4.610558565623E-01 -4.072450496923E-01
H91 -2.221896258008E-01 -3.234269235705E-01  4.098027292660E-01
H92  2.221896258008E-01  3.234269235705E-01 -4.098027292660E-01
H93 -7.083465213362E-02 -2.883526262443E-01  4.638876057163E-01
H94  7.083465213362E-02  2.883526262443E-01 -4.638876057163E-01
H95  1.130982714585E-03  2.248468389336E-03  2.888553639263E-01
H96 -1.130982714585E-03 -2.248468389336E-03 -2.888553639263E-01
H97 -6.619184493999E-02 -1.224394736222E-02  3.931759727486E-01
H98  6.619184493999E-02  1.224394736222E-02 -3.931759727486E-01
H99 -2.056310212352E-01 -5.106579482376E-02  3.336775333582E-01
H100  2.056310212352E-01  5.106579482376E-02 -3.336775333582E-01


#===END

data_OPT_STEP_20

_symmetry_space_group_name_H-M 'P 1'
_cell_length_a      7.97828228
_cell_length_b      8.55364688
_cell_length_c     17.31472911
_cell_angle_alpha   86.473379
_cell_angle_beta   76.518612
_cell_angle_gamma   80.493404

loop_
_atom_site_label
_atom_site_fract_x
_atom_site_fract_y
_atom_site_fract_z
SI1  2.611063600551E-01 -2.834165337648E-01  3.185192383181E-01
SI2 -2.611063600551E-01  2.834165337648E-01 -3.185192383181E-01
C3  4.463729811917E-01 -6.619250988469E-02  7.778849721214E-02
C4 -4.463729811917E-01  6.619250988469E-02 -7.778849721214E-02
C5  3.241340937946E-01  3.818902859064E-02  4.372388829143E-02
C6 -3.241340937946E-01 -3.818902859064E-02 -4.372388829143E-02
C7  1.490451674391E-01  7.738304743970E-02  8.444706809767E-02
C8 -1.490451674391E-01 -7.738304743970E-02 -8.444706809767E-02
C9  2.787231686123E-02  1.778158522127E-01  5.181271832382E-02
C10 -2.787231686123E-02 -1.778158522127E-01 -5.181271832382E-02
C11 -1.509955851326E-01  2.151132434087E-01  9.280099834405E-02
C12  1.509955851326E-01 -2.151132434087E-01 -9.280099834405E-02
C13 -2.669798599636E-01  3.146031012619E-01  5.930211612521E-02
C14  2.669798599636E-01 -3.146031012619E-01 -5.930211612521E-02
C15 -2.124738179349E-01  3.843146128809E-01 -1.755071229390E-02
C16  2.124738179349E-01 -3.843146128809E-01  1.755071229390E-02
C17 -4.415514641060E-02  3.513383636947E-01 -5.896796470853E-02
C18  4.415514641060E-02 -3.513383636947E-01  5.896796470853E-02
C19  8.239693874645E-02  2.463615189171E-01 -2.650190884320E-02
C20 -8.239693874645E-02 -2.463615189171E-01  2.650190884320E-02
C21  2.541576250521E-01  2.082079372260E-01 -6.739866611599E-02
C22 -2.541576250521E-01 -2.082079372260E-01  6.739866611599E-02
C23  3.782598196659E-01  1.051692463469E-01 -3.510330287944E-02
C24 -3.782598196659E-01 -1.051692463469E-01  3.510330287944E-02
C25  3.919848087019E-01 -1.325501052618E-01  1.548377925707E-01
C26 -3.919848087019E-01  1.325501052618E-01 -1.548377925707E-01
C27  3.435562620141E-01 -1.888089401917E-01  2.209164853313E-01
C28 -3.435562620141E-01  1.888089401917E-01 -2.209164853313E-01
C29  3.399882263788E-01  4.921142612291E-01  3.090729820563E-01
C30 -3.399882263788E-01 -4.921142612291E-01 -3.090729820563E-01
C31  2.653984584647E-01  4.217774751443E-01  2.470399669263E-01
C32 -2.653984584647E-01 -4.217774751443E-01 -2.470399669263E-01
C33 -4.600538089636E-01  4.510640263174E-01  2.906874393737E-01
C34  4.600538089636E-01 -4.510640263174E-01 -2.906874393737E-01
C35  3.620239547601E-01 -2.004840521674E-01  3.949618213816E-01
C36 -3.620239547601E-01  2.004840521674E-01 -3.949618213816E-01
C37  3.174336655174E-01 -2.794878250759E-01  4.778207558936E-01
C38 -3.174336655174E-01  2.794878250759E-01 -4.778207558936E-01
C39  3.255376389079E-01 -1.878691864116E-02  3.994933280944E-01
C40 -3.255376389079E-01  1.878691864116E-02 -3.994933280944E-01
C41  1.067198004912E-02 -2.430657217524E-01  3.362598326915E-01
C42 -1.067198004912E-02  2.430657217524E-01 -3.362598326915E-01
C43 -8.242245619883E-02 -3.348120663955E-01  4.082952633015E-01
C44  8.242245619883E-02  3.348120663955E-01 -4.082952633015E-01
C45 -6.824624170612E-02 -6.647622922395E-02  3.381542095562E-01
C46  6.824624170612E-02  6.647622922395E-02 -3.381542095562E-01
H47  1.081587681961E-01  2.469110338098E-02  1.428518325385E-01
H48 -1.081587681961E-01 -2.469110338098E-02 -1.428518325385E-01
H49 -1.923981289242E-01  1.607689495857E-01  1.509193876105E-01
H50  1.923981289242E-01 -1.607689495857E-01 -1.509193876105E-01
H51 -4.023775079350E-01  3.408378774794E-01  9.071793592119E-02
H52  4.023775079350E-01 -3.408378774794E-01 -9.071793592119E-02
H53 -3.066501837749E-01  4.657860105451E-01 -4.216429352374E-02
H54  3.066501837749E-01 -4.657860105451E-01  4.216429352374E-02
H55 -2.326536549767E-03  4.062536239947E-01 -1.168674869187E-01
H56  2.326536549767E-03 -4.062536239947E-01  1.168674869187E-01
H57  2.955167126504E-01  2.584835010619E-01 -1.263935099127E-01
H58 -2.955167126504E-01 -2.584835010619E-01  1.263935099127E-01
H59  2.887498394165E-01  4.385620315424E-01  3.673033689649E-01
H60 -2.887498394165E-01 -4.385620315424E-01 -3.673033689649E-01
H61  3.016444879034E-01  4.807512908104E-01  1.890282238607E-01
H62 -3.016444879034E-01 -4.807512908104E-01 -1.890282238607E-01
H63  1.230444168728E-01  4.344673139778E-01  2.634136458569E-01
H64 -1.230444168728E-01 -4.344673139778E-01 -2.634136458569E-01
H65  3.152110957635E-01  2.949668014694E-01  2.399060493464E-01
H66 -3.152110957635E-01 -2.949668014694E-01 -2.399060493464E-01
H67 -4.192530494954E-01  3.223345770572E-01  2.879645660572E-01
H68  4.192530494954E-01 -3.223345770572E-01 -2.879645660572E-01
H69 -4.040129769523E-01  4.937740903534E-01  3.357575800576E-01
H70  4.040129769523E-01 -4.937740903534E-01 -3.357575800576E-01
H71 -4.011523043905E-01 -4.979936800088E-01  2.332193505092E-01
H72  4.011523043905E-01  4.979936800088E-01 -2.332193505092E-01
H73 -4.970803259104E-01 -2.333287387135E-01  3.708197292995E-01
H74  4.970803259104E-01  2.333287387135E-01 -3.708197292995E-01
H75  3.898710921907E-01 -2.396409602458E-01 -4.824567751514E-01
H76 -3.898710921907E-01  2.396409602458E-01  4.824567751514E-01
H77  3.486874916438E-01 -4.088132512754E-01  4.758647521649E-01
H78 -3.486874916438E-01  4.088132512754E-01 -4.758647521649E-01
H79  1.786937557901E-01 -2.494431410436E-01 -4.941968012929E-01
H80 -1.786937557901E-01  2.494431410436E-01  4.941968012929E-01
H81  1.874306792479E-01  2.454948436573E-02  4.235509912986E-01
H82 -1.874306792479E-01 -2.454948436573E-02 -4.235509912986E-01
H83  3.629138354615E-01  3.753520890602E-02  3.409997228654E-01
H84 -3.629138354615E-01 -3.753520890602E-02 -3.409997228654E-01
H85  3.984665250421E-01  2.226338480724E-02  4.386577639047E-01
H86 -3.984665250421E-01 -2.226338480724E-02 -4.386577639047E-01
H87 -1.108885632898E-02 -2.908567341146E-01  2.825481236170E-01
H88  1.108885632898E-02  2.908567341146E-01 -2.825481236170E-01
H89 -3.050607363002E-02 -4.614294339023E-01  4.073428148980E-01
H90  3.050607363002E-02  4.614294339023E-01 -4.073428148980E-01
H91 -2.221297023913E-01 -3.234248547232E-01  4.101436600185E-01
H92  2.221297023913E-01  3.234248547232E-01 -4.101436600185E-01
H93 -7.082076786702E-02 -2.892307411086E-01  4.641723468755E-01
H94  7.082076786702E-02  2.892307411086E-01 -4.641723468755E-01
H95  1.372953134497E-03  1.656112334347E-03  2.891419886505E-01
H96 -1.372953134497E-03 -1.656112334347E-03 -2.891419886505E-01
H97 -6.567871033482E-02 -1.305422649423E-02  3.935369980432E-01
H98  6.567871033482E-02  1.305422649423E-02 -3.935369980432E-01
H99 -2.051248358257E-01 -5.123406687066E-02  3.341855846521E-01
H100  2.051248358257E-01  5.123406687066E-02 -3.341855846521E-01


#===END

data_OPT_STEP_21

_symmetry_space_group_name_H-M 'P 1'
_cell_length_a      7.99203053
_cell_length_b      8.57024251
_cell_length_c     17.30071501
_cell_angle_alpha   86.474559
_cell_angle_beta   76.450136
_cell_angle_gamma   80.447407

loop_
_atom_site_label
_atom_site_fract_x
_atom_site_fract_y
_atom_site_fract_z
SI1  2.608555046491E-01 -2.840453280716E-01  3.184754819581E-01
SI2 -2.608555046491E-01  2.840453280716E-01 -3.184754819581E-01
C3  4.462582949944E-01 -6.639026708333E-02  7.778570574710E-02
C4 -4.462582949944E-01  6.639026708333E-02 -7.778570574710E-02
C5  3.241140889898E-01  3.762087708710E-02  4.371243756074E-02
C6 -3.241140889898E-01 -3.762087708710E-02 -4.371243756074E-02
C7  1.489388783580E-01  7.607627029669E-02  8.437052246849E-02
C8 -1.489388783580E-01 -7.607627029669E-02 -8.437052246849E-02
C9  2.818167362877E-02  1.770551582454E-01  5.187642974039E-02
C10 -2.818167362877E-02 -1.770551582454E-01 -5.187642974039E-02
C11 -1.505874816280E-01  2.140219214643E-01  9.285934909112E-02
C12  1.505874816280E-01 -2.140219214643E-01 -9.285934909112E-02
C13 -2.664051470946E-01  3.133726041805E-01  5.936428381885E-02
C14  2.664051470946E-01 -3.133726041805E-01 -5.936428381885E-02
C15 -2.115475186040E-01  3.840524202861E-01 -1.733718455787E-02
C16  2.115475186040E-01 -3.840524202861E-01  1.733718455787E-02
C17 -4.322341418340E-02  3.516796835453E-01 -5.869004613508E-02
C18  4.322341418340E-02 -3.516796835453E-01  5.869004613508E-02
C19  8.285905501118E-02  2.459839760879E-01 -2.639632572798E-02
C20 -8.285905501118E-02 -2.459839760879E-01  2.639632572798E-02
C21  2.546407622036E-01  2.083052051258E-01 -6.727643868665E-02
C22 -2.546407622036E-01 -2.083052051258E-01  6.727643868665E-02
C23  3.785059913810E-01  1.051557617184E-01 -3.504824620989E-02
C24 -3.785059913810E-01 -1.051557617184E-01  3.504824620989E-02
C25  3.917546040422E-01 -1.331127152747E-01  1.547716075497E-01
C26 -3.917546040422E-01  1.331127152747E-01 -1.547716075497E-01
C27  3.433217319217E-01 -1.895871135989E-01  2.208480553969E-01
C28 -3.433217319217E-01  1.895871135989E-01 -2.208480553969E-01
C29  3.395975323047E-01  4.919027393636E-01  3.089550157678E-01
C30 -3.395975323047E-01 -4.919027393636E-01 -3.089550157678E-01
C31  2.654038580444E-01  4.218961135600E-01  2.467760929656E-01
C32 -2.654038580444E-01 -4.218961135600E-01 -2.467760929656E-01
C33 -4.607006619297E-01  4.507679984002E-01  2.906037888493E-01
C34  4.607006619297E-01 -4.507679984002E-01 -2.906037888493E-01
C35  3.617587379117E-01 -2.013699820923E-01  3.948590833567E-01
C36 -3.617587379117E-01  2.013699820923E-01 -3.948590833567E-01
C37  3.167659640396E-01 -2.795676219292E-01  4.779326987200E-01
C38 -3.167659640396E-01  2.795676219292E-01 -4.779326987200E-01
C39  3.260896989015E-01 -1.996211320720E-02  3.990928828510E-01
C40 -3.260896989015E-01  1.996211320720E-02 -3.990928828510E-01
C41  1.077285860061E-02 -2.433796306423E-01  3.363428461959E-01
C42 -1.077285860061E-02  2.433796306423E-01 -3.363428461959E-01
C43 -8.230805508435E-02 -3.348207602729E-01  4.084614693953E-01
C44  8.230805508435E-02  3.348207602729E-01 -4.084614693953E-01
C45 -6.777498001641E-02 -6.703890321560E-02  3.383732915758E-01
C46  6.777498001641E-02  6.703890321560E-02 -3.383732915758E-01
H47  1.077791715893E-01  2.271344088605E-02  1.426521176756E-01
H48 -1.077791715893E-01 -2.271344088605E-02 -1.426521176756E-01
H49 -1.921165336398E-01  1.593847215520E-01  1.509294317121E-01
H50  1.921165336398E-01 -1.593847215520E-01 -1.509294317121E-01
H51 -4.019463739396E-01  3.386480918049E-01  9.065652314924E-02
H52  4.019463739396E-01 -3.386480918049E-01 -9.065652314924E-02
H53 -3.053813306901E-01  4.659879464033E-01 -4.187277396593E-02
H54  3.053813306901E-01 -4.659879464033E-01  4.187277396593E-02
H55 -1.119356148548E-03  4.074144699669E-01 -1.164430151097E-01
H56  1.119356148548E-03 -4.074144699669E-01  1.164430151097E-01
H57  2.959765984544E-01  2.584047045113E-01 -1.263147699404E-01
H58 -2.959765984544E-01 -2.584047045113E-01  1.263147699404E-01
H59  2.881786792195E-01  4.384725910729E-01  3.672269729201E-01
H60 -2.881786792195E-01 -4.384725910729E-01 -3.672269729201E-01
H61  3.019739362386E-01  4.806966925801E-01  1.887132909241E-01
H62 -3.019739362386E-01 -4.806966925801E-01 -1.887132909241E-01
H63  1.232168730673E-01  4.348087955097E-01  2.630720175669E-01
H64 -1.232168730673E-01 -4.348087955097E-01 -2.630720175669E-01
H65  3.150440259179E-01  2.952885553320E-01  2.396475743966E-01
H66 -3.150440259179E-01 -2.952885553320E-01 -2.396475743966E-01
H67 -4.199365180126E-01  3.222990880466E-01  2.877702052760E-01
H68  4.199365180126E-01 -3.222990880466E-01 -2.877702052760E-01
H69 -4.049580794282E-01  4.931867844203E-01  3.358124762453E-01
H70  4.049580794282E-01 -4.931867844203E-01 -3.358124762453E-01
H71 -4.016500089975E-01 -4.982911380565E-01  2.331323384999E-01
H72  4.016500089975E-01  4.982911380565E-01 -2.331323384999E-01
H73 -4.975638999794E-01 -2.348043412734E-01  3.706906026645E-01
H74  4.975638999794E-01  2.348043412734E-01 -3.706906026645E-01
H75  3.894956532865E-01 -2.400301675610E-01 -4.824795307387E-01
H76 -3.894956532865E-01  2.400301675610E-01  4.824795307387E-01
H77  3.472240170733E-01 -4.087039720316E-01  4.761834542354E-01
H78 -3.472240170733E-01  4.087039720316E-01 -4.761834542354E-01
H79  1.782838938166E-01 -2.487225805128E-01 -4.939915088678E-01
H80 -1.782838938166E-01  2.487225805128E-01  4.939915088678E-01
H81  1.883120430959E-01  2.393207571320E-02  4.233333365012E-01
H82 -1.883120430959E-01 -2.393207571320E-02 -4.233333365012E-01
H83  3.633848980228E-01  3.572074035446E-02  3.404000048043E-01
H84 -3.633848980228E-01 -3.572074035446E-02 -3.404000048043E-01
H85  3.994439577134E-01  2.096714025192E-02  4.380087820213E-01
H86 -3.994439577134E-01 -2.096714025192E-02 -4.380087820213E-01
H87 -1.108100494271E-02 -2.908771320524E-01  2.825840584707E-01
H88  1.108100494271E-02  2.908771320524E-01 -2.825840584707E-01
H89 -3.081583923222E-02 -4.612788153898E-01  4.073678134787E-01
H90  3.081583923222E-02  4.612788153898E-01 -4.073678134787E-01
H91 -2.219109586457E-01 -3.229379791508E-01  4.104368795117E-01
H92  2.219109586457E-01  3.229379791508E-01 -4.104368795117E-01
H93 -7.039379051707E-02 -2.896383264081E-01  4.643970527738E-01
H94  7.039379051707E-02  2.896383264081E-01 -4.643970527738E-01
H95  1.657148223527E-03  7.494485431338E-04  2.892148229875E-01
H96 -1.657148223527E-03 -7.494485431338E-04 -2.892148229875E-01
H97 -6.469393963998E-02 -1.381952614828E-02  3.937591616812E-01
H98  6.469393963998E-02  1.381952614828E-02 -3.937591616812E-01
H99 -2.046030244134E-01 -5.142239003484E-02  3.346519101587E-01
H100  2.046030244134E-01  5.142239003484E-02 -3.346519101587E-01


#===END

data_OPT_STEP_22

_symmetry_space_group_name_H-M 'P 1'
_cell_length_a      8.02352117
_cell_length_b      8.60075558
_cell_length_c     17.28325513
_cell_angle_alpha   86.452576
_cell_angle_beta   76.277900
_cell_angle_gamma   80.333523

loop_
_atom_site_label
_atom_site_fract_x
_atom_site_fract_y
_atom_site_fract_z
SI1  2.601210094169E-01 -2.855929727253E-01  3.184760214937E-01
SI2 -2.601210094169E-01  2.855929727253E-01 -3.184760214937E-01
C3  4.456903409194E-01 -6.756051353532E-02  7.762742737486E-02
C4 -4.456903409194E-01  6.756051353532E-02 -7.762742737486E-02
C5  3.242338745333E-01  3.690687247495E-02  4.374778223950E-02
C6 -3.242338745333E-01 -3.690687247495E-02 -4.374778223950E-02
C7  1.491650343072E-01  7.460800277002E-02  8.438297325804E-02
C8 -1.491650343072E-01 -7.460800277002E-02 -8.438297325804E-02
C9  2.895225224766E-02  1.757491781677E-01  5.200486428464E-02
C10 -2.895225224766E-02 -1.757491781677E-01 -5.200486428464E-02
C11 -1.495676078841E-01  2.122412293454E-01  9.298787826919E-02
C12  1.495676078841E-01 -2.122412293454E-01 -9.298787826919E-02
C13 -2.648324180954E-01  3.118212061818E-01  5.960309437262E-02
C14  2.648324180954E-01 -3.118212061818E-01 -5.960309437262E-02
C15 -2.096812393222E-01  3.830348023936E-01 -1.701621553478E-02
C16  2.096812393222E-01 -3.830348023936E-01  1.701621553478E-02
C17 -4.154171349319E-02  3.512434371210E-01 -5.833481851223E-02
C18  4.154171349319E-02 -3.512434371210E-01  5.833481851223E-02
C19  8.410407053606E-02  2.457344100950E-01 -2.610830647570E-02
C20 -8.410407053606E-02 -2.457344100950E-01  2.610830647570E-02
C21  2.558561203601E-01  2.089125041677E-01 -6.695089792891E-02
C22 -2.558561203601E-01 -2.089125041677E-01  6.695089792891E-02
C23  3.792135315493E-01  1.056247977901E-01 -3.485153646968E-02
C24 -3.792135315493E-01 -1.056247977901E-01  3.485153646968E-02
C25  3.909355447355E-01 -1.348703532677E-01  1.545426059616E-01
C26 -3.909355447355E-01  1.348703532677E-01 -1.545426059616E-01
C27  3.424905194522E-01 -1.915591046298E-01  2.206654992070E-01
C28 -3.424905194522E-01  1.915591046298E-01 -2.206654992070E-01
C29  3.382522556121E-01  4.909443090884E-01  3.088790851460E-01
C30 -3.382522556121E-01 -4.909443090884E-01 -3.088790851460E-01
C31  2.643885164716E-01  4.215451731352E-01  2.466355600522E-01
C32 -2.643885164716E-01 -4.215451731352E-01 -2.466355600522E-01
C33 -4.626582440020E-01  4.492406527108E-01  2.903910959486E-01
C34  4.626582440020E-01 -4.492406527108E-01 -2.903910959486E-01
C35  3.611928266866E-01 -2.034355081065E-01  3.946371882803E-01
C36 -3.611928266866E-01  2.034355081065E-01 -3.946371882803E-01
C37  3.153147965214E-01 -2.799855278690E-01  4.781367786222E-01
C38 -3.153147965214E-01  2.799855278690E-01 -4.781367786222E-01
C39  3.273751684971E-01 -2.246083682135E-02  3.982627630622E-01
C40 -3.273751684971E-01  2.246083682135E-02 -3.982627630622E-01
C41  1.076874573026E-02 -2.441369105376E-01  3.367473827443E-01
C42 -1.076874573026E-02  2.441369105376E-01 -3.367473827443E-01
C43 -8.229694889373E-02 -3.355476168058E-01  4.088478441114E-01
C44  8.229694889373E-02  3.355476168058E-01 -4.088478441114E-01
C45 -6.705884046525E-02 -6.812433395920E-02  3.393414525382E-01
C46  6.705884046525E-02  6.812433395920E-02 -3.393414525382E-01
H47  1.075758431835E-01  2.030730573041E-02  1.424938557315E-01
H48 -1.075758431835E-01 -2.030730573041E-02 -1.424938557315E-01
H49 -1.913006223637E-01  1.572971663981E-01  1.510010846914E-01
H50  1.913006223637E-01 -1.572971663981E-01 -1.510010846914E-01
H51 -4.001885804972E-01  3.366439315574E-01  9.090243942630E-02
H52  4.001885804972E-01 -3.366439315574E-01 -9.090243942630E-02
H53 -3.031721581437E-01  4.647469264572E-01 -4.156728247514E-02
H54  3.031721581437E-01 -4.647469264572E-01  4.156728247514E-02
H55  7.063020037486E-04  4.072626284149E-01 -1.160291230443E-01
H56 -7.063020037486E-04 -4.072626284149E-01  1.160291230443E-01
H57  2.976723788949E-01  2.600648757434E-01 -1.258257997868E-01
H58 -2.976723788949E-01 -2.600648757434E-01  1.258257997868E-01
H59  2.866545870304E-01  4.378680650523E-01  3.672718156439E-01
H60 -2.866545870304E-01 -4.378680650523E-01 -3.672718156439E-01
H61  3.014521276721E-01  4.798287945678E-01  1.884271434508E-01
H62 -3.014521276721E-01 -4.798287945678E-01 -1.884271434508E-01
H63  1.225799665859E-01  4.351666336558E-01  2.629494438674E-01
H64 -1.225799665859E-01 -4.351666336558E-01 -2.629494438674E-01
H65  3.134111095922E-01  2.951858616446E-01  2.395837895327E-01
H66 -3.134111095922E-01 -2.951858616446E-01 -2.395837895327E-01
H67 -4.222615301058E-01  3.211432749086E-01  2.874493913698E-01
H68  4.222615301058E-01 -3.211432749086E-01 -2.874493913698E-01
H69 -4.071867079723E-01  4.911358697514E-01  3.356895825345E-01
H70  4.071867079723E-01 -4.911358697514E-01 -3.356895825345E-01
H71 -4.034457676642E-01  4.999023589114E-01  2.328265289714E-01
H72  4.034457676642E-01 -4.999023589114E-01 -2.328265289714E-01
H73 -4.986150712986E-01 -2.382107325437E-01  3.703980341556E-01
H74  4.986150712986E-01  2.382107325437E-01 -3.703980341556E-01
H75  3.885035624582E-01 -2.410097303692E-01 -4.825498751010E-01
H76 -3.885035624582E-01  2.410097303692E-01  4.825498751010E-01
H77  3.441778965300E-01 -4.088481301284E-01  4.768308644479E-01
H78 -3.441778965300E-01  4.088481301284E-01 -4.768308644479E-01
H79  1.773568448660E-01 -2.474859805829E-01 -4.936229355084E-01
H80 -1.773568448660E-01  2.474859805829E-01  4.936229355084E-01
H81  1.902837125792E-01  2.273115916944E-02  4.227808838604E-01
H82 -1.902837125792E-01 -2.273115916944E-02 -4.227808838604E-01
H83  3.647956886846E-01  3.197395640658E-02  3.392108006629E-01
H84 -3.647956886846E-01 -3.197395640658E-02 -3.392108006629E-01
H85  4.013943960564E-01  1.811134610687E-02  4.367490315496E-01
H86 -4.013943960564E-01 -1.811134610687E-02 -4.367490315496E-01
H87 -1.123695819871E-02 -2.906442846974E-01  2.828222318938E-01
H88  1.123695819871E-02  2.906442846974E-01 -2.828222318938E-01
H89 -3.139231889137E-02 -4.617347224035E-01  4.073572076496E-01
H90  3.139231889137E-02  4.617347224035E-01 -4.073572076496E-01
H91 -2.215559174286E-01 -3.228898476372E-01  4.109937483369E-01
H92  2.215559174286E-01  3.228898476372E-01 -4.109937483369E-01
H93 -7.017015712406E-02 -2.913840551862E-01  4.649680507846E-01
H94  7.017015712406E-02  2.913840551862E-01 -4.649680507846E-01
H95  2.038947955046E-03 -5.393414313784E-04  2.900733882248E-01
H96 -2.038947955046E-03  5.393414313784E-04 -2.900733882248E-01
H97 -6.319671495511E-02 -1.577925573415E-02  3.948517713919E-01
H98  6.319671495511E-02  1.577925573415E-02 -3.948517713919E-01
H99 -2.036805600507E-01 -5.166345014503E-02  3.360612659591E-01
H100  2.036805600507E-01  5.166345014503E-02 -3.360612659591E-01


#===END

data_OPT_STEP_23

_symmetry_space_group_name_H-M 'P 1'
_cell_length_a      8.08410059
_cell_length_b      8.60068410
_cell_length_c     17.28644798
_cell_angle_alpha   86.492404
_cell_angle_beta   76.177869
_cell_angle_gamma   80.325653

loop_
_atom_site_label
_atom_site_fract_x
_atom_site_fract_y
_atom_site_fract_z
SI1  2.601767737769E-01 -2.907959900898E-01  3.171709316780E-01
SI2 -2.601767737769E-01  2.907959900898E-01 -3.171709316780E-01
C3  4.456847381075E-01 -6.953940528167E-02  7.713287394016E-02
C4 -4.456847381075E-01  6.953940528167E-02 -7.713287394016E-02
C5  3.250880053616E-01  3.546009285859E-02  4.362788510325E-02
C6 -3.250880053616E-01 -3.546009285859E-02 -4.362788510325E-02
C7  1.508406889148E-01  7.157398141199E-02  8.408475656016E-02
C8 -1.508406889148E-01 -7.157398141199E-02 -8.408475656016E-02
C9  3.125390484751E-02  1.727232233798E-01  5.200142875798E-02
C10 -3.125390484751E-02 -1.727232233798E-01 -5.200142875798E-02
C11 -1.464572613409E-01  2.072973077679E-01  9.272997084651E-02
C12  1.464572613409E-01 -2.072973077679E-01 -9.272997084651E-02
C13 -2.612031560331E-01  3.067629673286E-01  5.959922960027E-02
C14  2.612031560331E-01 -3.067629673286E-01 -5.959922960027E-02
C15 -2.059082980920E-01  3.808468352732E-01 -1.630698383256E-02
C16  2.059082980920E-01 -3.808468352732E-01  1.630698383256E-02
C17 -3.843053976628E-02  3.510796221389E-01 -5.731982105397E-02
C18  3.843053976628E-02 -3.510796221389E-01  5.731982105397E-02
C19  8.641697550699E-02  2.450792748827E-01 -2.549293963302E-02
C20 -8.641697550699E-02 -2.450792748827E-01  2.549293963302E-02
C21  2.574978446631E-01  2.100612376360E-01 -6.612754573052E-02
C22 -2.574978446631E-01 -2.100612376360E-01  6.612754573052E-02
C23  3.801119132572E-01  1.063514937869E-01 -3.442438810968E-02
C24 -3.801119132572E-01 -1.063514937869E-01  3.442438810968E-02
C25  3.908489825189E-01 -1.388034230299E-01  1.535413652662E-01
C26 -3.908489825189E-01  1.388034230299E-01 -1.535413652662E-01
C27  3.425884207373E-01 -1.967328220344E-01  2.194264932732E-01
C28 -3.425884207373E-01  1.967328220344E-01 -2.194264932732E-01
C29  3.358200835101E-01  4.853322207620E-01  3.075645458007E-01
C30 -3.358200835101E-01 -4.853322207620E-01 -3.075645458007E-01
C31  2.625171479642E-01  4.167743703736E-01  2.450715495662E-01
C32 -2.625171479642E-01 -4.167743703736E-01 -2.450715495662E-01
C33 -4.666422541174E-01  4.419811693521E-01  2.894785955844E-01
C34  4.666422541174E-01 -4.419811693521E-01 -2.894785955844E-01
C35  3.618974009477E-01 -2.093760277184E-01  3.929558939236E-01
C36 -3.618974009477E-01  2.093760277184E-01 -3.929558939236E-01
C37  3.152879057389E-01 -2.845785139698E-01  4.767000023318E-01
C38 -3.152879057389E-01  2.845785139698E-01 -4.767000023318E-01
C39  3.310193493161E-01 -2.842030936693E-02  3.959354635375E-01
C40 -3.310193493161E-01  2.842030936693E-02 -3.959354635375E-01
C41  1.259736672945E-02 -2.475507333259E-01  3.358290093090E-01
C42 -1.259736672945E-02  2.475507333259E-01 -3.358290093090E-01
C43 -8.032852433403E-02 -3.390737204508E-01  4.077138984403E-01
C44  8.032852433403E-02  3.390737204508E-01 -4.077138984403E-01
C45 -6.297392209962E-02 -7.106456313353E-02  3.392737569484E-01
C46  6.297392209962E-02  7.106456313353E-02 -3.392737569484E-01
H47  1.092869863234E-01  1.566092535885E-02  1.417323547137E-01
H48 -1.092869863234E-01 -1.566092535885E-02 -1.417323547137E-01
H49 -1.882677537274E-01  1.503051157736E-01  1.502115567015E-01
H50  1.882677537274E-01 -1.503051157736E-01 -1.502115567015E-01
H51 -3.960008097110E-01  3.296876983105E-01  9.068132790204E-02
H52  3.960008097110E-01 -3.296876983105E-01 -9.068132790204E-02
H53 -2.987218481101E-01  4.630968781656E-01 -4.060336690228E-02
H54  2.987218481101E-01 -4.630968781656E-01  4.060336690228E-02
H55  3.952283012211E-03  4.095190120786E-01 -1.144039339456E-01
H56 -3.952283012211E-03 -4.095190120786E-01  1.144039339456E-01
H57  2.997634303545E-01  2.640853138341E-01 -1.243594266363E-01
H58 -2.997634303545E-01 -2.640853138341E-01  1.243594266363E-01
H59  2.832965258071E-01  4.326344363478E-01  3.659049540688E-01
H60 -2.832965258071E-01 -4.326344363478E-01 -3.659049540688E-01
H61  3.012898945108E-01  4.743082310964E-01  1.867950372499E-01
H62 -3.012898945108E-01 -4.743082310964E-01 -1.867950372499E-01
H63  1.215526099429E-01  4.322125250158E-01  2.609233116636E-01
H64 -1.215526099429E-01 -4.322125250158E-01 -2.609233116636E-01
H65  3.094178093466E-01  2.899431207620E-01  2.383464556773E-01
H66 -3.094178093466E-01 -2.899431207620E-01 -2.383464556773E-01
H67 -4.277846117008E-01  3.136735779883E-01  2.861658619855E-01
H68  4.277846117008E-01 -3.136735779883E-01 -2.861658619855E-01
H69 -4.118570364887E-01  4.825306173335E-01  3.352018642607E-01
H70  4.118570364887E-01 -4.825306173335E-01 -3.352018642607E-01
H71 -4.064485721572E-01  4.928873118480E-01  2.321859761544E-01
H72  4.064485721572E-01 -4.928873118480E-01 -2.321859761544E-01
H73 -4.991739576784E-01 -2.458755429475E-01  3.686859284991E-01
H74  4.991739576784E-01  2.458755429475E-01 -3.686859284991E-01
H75  3.885939123596E-01 -2.460704083081E-01 -4.841971147676E-01
H76 -3.885939123596E-01  2.460704083081E-01  4.841971147676E-01
H77  3.421986002652E-01 -4.133862963609E-01  4.758693637254E-01
H78 -3.421986002652E-01  4.133862963609E-01 -4.758693637254E-01
H79  1.785297268862E-01 -2.506822579540E-01 -4.951297713683E-01
H80 -1.785297268862E-01  2.506822579540E-01  4.951297713683E-01
H81  1.954254711812E-01  1.809909958371E-02  4.207646750752E-01
H82 -1.954254711812E-01 -1.809909958371E-02 -4.207646750752E-01
H83  3.681884641529E-01  2.500613221235E-02  3.366053395145E-01
H84 -3.681884641529E-01 -2.500613221235E-02 -3.366053395145E-01
H85  4.060113093174E-01  1.184413763113E-02  4.338301446538E-01
H86 -4.060113093174E-01 -1.184413763113E-02 -4.338301446538E-01
H87 -1.023860994435E-02 -2.928446865262E-01  2.817925897762E-01
H88  1.023860994435E-02  2.928446865262E-01 -2.817925897762E-01
H89 -3.187419477136E-02 -4.657782878013E-01  4.053353643322E-01
H90  3.187419477136E-02  4.657782878013E-01 -4.053353643322E-01
H91 -2.189842480345E-01 -3.239831468799E-01  4.104516772719E-01
H92  2.189842480345E-01  3.239831468799E-01 -4.104516772719E-01
H93 -6.616263119314E-02 -2.969141985770E-01  4.639463004799E-01
H94  6.616263119314E-02  2.969141985770E-01 -4.639463004799E-01
H95  5.743847026420E-03 -3.535593515953E-03  2.900282819868E-01
H96 -5.743847026420E-03  3.535593515953E-03 -2.900282819868E-01
H97 -5.744022156672E-02 -1.980767703398E-02  3.948519878293E-01
H98  5.744022156672E-02  1.980767703398E-02 -3.948519878293E-01
H99 -1.990213139872E-01 -5.309523712734E-02  3.365881176443E-01
H100  1.990213139872E-01  5.309523712734E-02 -3.365881176443E-01


#===END

data_OPT_STEP_24

_symmetry_space_group_name_H-M 'P 1'
_cell_length_a      8.14379075
_cell_length_b      8.65546133
_cell_length_c     17.23865405
_cell_angle_alpha   86.377818
_cell_angle_beta   75.725469
_cell_angle_gamma   80.102642

loop_
_atom_site_label
_atom_site_fract_x
_atom_site_fract_y
_atom_site_fract_z
SI1  2.581940627353E-01 -2.929071883764E-01  3.177905887154E-01
SI2 -2.581940627353E-01  2.929071883764E-01 -3.177905887154E-01
C3  4.445920380655E-01 -7.159441569938E-02  7.689282080651E-02
C4 -4.445920380655E-01  7.159441569938E-02 -7.689282080651E-02
C5  3.248419087737E-01  3.320901937377E-02  4.354741673576E-02
C6 -3.248419087737E-01 -3.320901937377E-02 -4.354741673576E-02
C7  1.507340209294E-01  6.783130137349E-02  8.402415788596E-02
C8 -1.507340209294E-01 -6.783130137349E-02 -8.402415788596E-02
C9  3.251595536201E-02  1.699185649352E-01  5.225353573721E-02
C10 -3.251595536201E-02 -1.699185649352E-01 -5.225353573721E-02
C11 -1.448207066132E-01  2.036454554180E-01  9.306431154033E-02
C12  1.448207066132E-01 -2.036454554180E-01 -9.306431154033E-02
C13 -2.584604165173E-01  3.033601227300E-01  6.006137630219E-02
C14  2.584604165173E-01 -3.033601227300E-01 -6.006137630219E-02
C15 -2.024432792964E-01  3.782869365937E-01 -1.581418169490E-02
C16  2.024432792964E-01 -3.782869365937E-01  1.581418169490E-02
C17 -3.505900458691E-02  3.499073954243E-01 -5.678450752353E-02
C18  3.505900458691E-02 -3.499073954243E-01  5.678450752353E-02
C19  8.885393911180E-02  2.443967267003E-01 -2.499794068764E-02
C20 -8.885393911180E-02 -2.443967267003E-01  2.499794068764E-02
C21  2.596143336658E-01  2.103071605070E-01 -6.572933709006E-02
C22 -2.596143336658E-01 -2.103071605070E-01  6.572933709006E-02
C23  3.810517231259E-01  1.062862450723E-01 -3.424474711027E-02
C24 -3.810517231259E-01 -1.062862450723E-01  3.424474711027E-02
C25  3.893236495669E-01 -1.415886246351E-01  1.533454232352E-01
C26 -3.893236495669E-01  1.415886246351E-01 -1.533454232352E-01
C27  3.410147059099E-01 -1.999933751823E-01  2.194021523526E-01
C28 -3.410147059099E-01  1.999933751823E-01 -2.194021523526E-01
C29  3.323732986247E-01  4.843240890366E-01  3.083688558608E-01
C30 -3.323732986247E-01 -4.843240890366E-01 -3.083688558608E-01
C31  2.607160969724E-01  4.170430900935E-01  2.454469188151E-01
C32 -2.607160969724E-01 -4.170430900935E-01 -2.454469188151E-01
C33 -4.712110821748E-01  4.396505462083E-01  2.905200321127E-01
C34  4.712110821748E-01 -4.396505462083E-01 -2.905200321127E-01
C35  3.601488565474E-01 -2.124274731923E-01  3.930307572290E-01
C36 -3.601488565474E-01  2.124274731923E-01 -3.930307572290E-01
C37  3.115581505017E-01 -2.841840054884E-01  4.777927872280E-01
C38 -3.115581505017E-01  2.841840054884E-01 -4.777927872280E-01
C39  3.332355233757E-01 -3.232319614903E-02  3.945121709426E-01
C40 -3.332355233757E-01  3.232319614903E-02 -3.945121709426E-01
C41  1.193434736149E-02 -2.479708291056E-01  3.371399138807E-01
C42 -1.193434736149E-02  2.479708291056E-01 -3.371399138807E-01
C43 -8.149763443362E-02 -3.394924577576E-01  4.090748228145E-01
C44  8.149763443362E-02  3.394924577576E-01 -4.090748228145E-01
C45 -6.222454103455E-02 -7.217355591332E-02  3.414912416593E-01
C46  6.222454103455E-02  7.217355591332E-02 -3.414912416593E-01
H47  1.082375346868E-01  1.007769161491E-02  1.413965206196E-01
H48 -1.082375346868E-01 -1.007769161491E-02 -1.413965206196E-01
H49 -1.871905090212E-01  1.460469320909E-01  1.505318495631E-01
H50  1.871905090212E-01 -1.460469320909E-01 -1.505318495631E-01
H51 -3.929096887587E-01  3.256027829353E-01  9.121439674354E-02
H52  3.929096887587E-01 -3.256027829353E-01 -9.121439674354E-02
H53 -2.945337235209E-01  4.600798219537E-01 -4.016171476860E-02
H54  2.945337235209E-01 -4.600798219537E-01  4.016171476860E-02
H55  7.740602042166E-03  4.086121106674E-01 -1.139011685345E-01
H56 -7.740602042166E-03 -4.086121106674E-01  1.139011685345E-01
H57  3.022980708280E-01  2.645529728375E-01 -1.240179339006E-01
H58 -3.022980708280E-01 -2.645529728375E-01  1.240179339006E-01
H59  2.784725890421E-01  4.324157559581E-01  3.669834404498E-01
H60 -2.784725890421E-01 -4.324157559581E-01 -3.669834404498E-01
H61  3.013506359574E-01  4.736693932249E-01  1.868438295638E-01
H62 -3.013506359574E-01 -4.736693932249E-01 -1.868438295638E-01
H63  1.203544803477E-01  4.339192100564E-01  2.610359861742E-01
H64 -1.203544803477E-01 -4.339192100564E-01 -2.610359861742E-01
H65  3.064560465842E-01  2.906884664355E-01  2.389521020494E-01
H66 -3.064560465842E-01 -2.906884664355E-01 -2.389521020494E-01
H67 -4.332192520665E-01  3.119839144315E-01  2.869736870166E-01
H68  4.332192520665E-01 -3.119839144315E-01 -2.869736870166E-01
H69 -4.178242893558E-01  4.787707679978E-01  3.367531680888E-01
H70  4.178242893558E-01 -4.787707679978E-01 -3.367531680888E-01
H71 -4.096415144202E-01  4.903314056694E-01  2.331529926903E-01
H72  4.096415144202E-01 -4.903314056694E-01 -2.331529926903E-01
H73  4.981729269903E-01 -2.518060781337E-01  3.685976816224E-01
H74 -4.981729269903E-01  2.518060781337E-01 -3.685976816224E-01
H75  3.859797913751E-01 -2.469796265510E-01 -4.837605288488E-01
H76 -3.859797913751E-01  2.469796265510E-01  4.837605288488E-01
H77  3.349658123514E-01 -4.125255457907E-01  4.779464012143E-01
H78 -3.349658123514E-01  4.125255457907E-01 -4.779464012143E-01
H79  1.758045109071E-01 -2.466611511371E-01 -4.936224516250E-01
H80 -1.758045109071E-01  2.466611511371E-01  4.936224516250E-01
H81  1.990773696070E-01  1.699315299484E-02  4.201763038460E-01
H82 -1.990773696070E-01 -1.699315299484E-02 -4.201763038460E-01
H83  3.703793056380E-01  1.846502686968E-02  3.342967196162E-01
H84 -3.703793056380E-01 -1.846502686968E-02 -3.342967196162E-01
H85  4.101018750469E-01  7.123496680659E-03  4.312433255877E-01
H86 -4.101018750469E-01 -7.123496680659E-03 -4.312433255877E-01
H87 -1.084448724180E-02 -2.913338606152E-01  2.827378536373E-01
H88  1.084448724180E-02  2.913338606152E-01 -2.827378536373E-01
H89 -3.458912540969E-02 -4.657740697799E-01  4.058692066331E-01
H90  3.458912540969E-02  4.657740697799E-01 -4.058692066331E-01
H91 -2.195525385665E-01 -3.223420002938E-01  4.122329754310E-01
H92  2.195525385665E-01  3.223420002938E-01 -4.122329754310E-01
H93 -6.682210201761E-02 -2.996611614574E-01  4.656931808966E-01
H94  6.682210201761E-02  2.996611614574E-01 -4.656931808966E-01
H95  7.087568356112E-03 -4.506005496249E-03  2.923405859838E-01
H96 -7.087568356112E-03  4.506005496249E-03 -2.923405859838E-01
H97 -5.712199873903E-02 -2.291963746226E-02  3.975833676504E-01
H98  5.712199873903E-02  2.291963746226E-02 -3.975833676504E-01
H99 -1.973735546156E-01 -5.290217554209E-02  3.389330859276E-01
H100  1.973735546156E-01  5.290217554209E-02 -3.389330859276E-01


#===END

data_OPT_STEP_25

_symmetry_space_group_name_H-M 'P 1'
_cell_length_a      8.20566855
_cell_length_b      8.65728372
_cell_length_c     17.21551117
_cell_angle_alpha   86.819232
_cell_angle_beta   75.378028
_cell_angle_gamma   79.972070

loop_
_atom_site_label
_atom_site_fract_x
_atom_site_fract_y
_atom_site_fract_z
SI1  2.560889797924E-01 -2.943579848214E-01  3.168478176856E-01
SI2 -2.560889797924E-01  2.943579848214E-01 -3.168478176856E-01
C3  4.439348905195E-01 -7.197554972359E-02  7.661588901887E-02
C4 -4.439348905195E-01  7.197554972359E-02 -7.661588901887E-02
C5  3.255662640205E-01  3.391178822279E-02  4.381311683858E-02
C6 -3.255662640205E-01 -3.391178822279E-02 -4.381311683858E-02
C7  1.514983262679E-01  6.743175917883E-02  8.415278760885E-02
C8 -1.514983262679E-01 -6.743175917883E-02 -8.415278760885E-02
C9  3.388556317891E-02  1.683785179586E-01  5.247526046550E-02
C10 -3.388556317891E-02 -1.683785179586E-01 -5.247526046550E-02
C11 -1.434962336568E-01  2.006757386969E-01  9.304922606055E-02
C12  1.434962336568E-01 -2.006757386969E-01 -9.304922606055E-02
C13 -2.557908270573E-01  3.011491069458E-01  6.037773243615E-02
C14  2.557908270573E-01 -3.011491069458E-01 -6.037773243615E-02
C15 -1.990335453332E-01  3.762546652504E-01 -1.523226143139E-02
C16  1.990335453332E-01 -3.762546652504E-01  1.523226143139E-02
C17 -3.216238697210E-02  3.475684829488E-01 -5.621611552921E-02
C18  3.216238697210E-02 -3.475684829488E-01  5.621611552921E-02
C19  9.067433663778E-02  2.422480993017E-01 -2.463237551847E-02
C20 -9.067433663778E-02 -2.422480993017E-01  2.463237551847E-02
C21  2.616179159600E-01  2.100078580622E-01 -6.507935930509E-02
C22 -2.616179159600E-01 -2.100078580622E-01  6.507935930509E-02
C23  3.822439820902E-01  1.067232539555E-01 -3.379215887081E-02
C24 -3.822439820902E-01 -1.067232539555E-01  3.379215887081E-02
C25  3.880137818244E-01 -1.428080134097E-01  1.527117994189E-01
C26 -3.880137818244E-01  1.428080134097E-01 -1.527117994189E-01
C27  3.395438004459E-01 -2.020514320267E-01  2.184511745656E-01
C28 -3.395438004459E-01  2.020514320267E-01 -2.184511745656E-01
C29  3.280871113904E-01  4.823492278014E-01  3.065692832019E-01
C30 -3.280871113904E-01 -4.823492278014E-01 -3.065692832019E-01
C31  2.565567836460E-01  4.157838885047E-01  2.434275859990E-01
C32 -2.565567836460E-01 -4.157838885047E-01 -2.434275859990E-01
C33 -4.767725195679E-01  4.353909101236E-01  2.882674967931E-01
C34  4.767725195679E-01 -4.353909101236E-01 -2.882674967931E-01
C35  3.585393767181E-01 -2.148216427617E-01  3.920671322360E-01
C36 -3.585393767181E-01  2.148216427617E-01 -3.920671322360E-01
C37  3.087421156325E-01 -2.844510265618E-01  4.771208588441E-01
C38 -3.087421156325E-01  2.844510265618E-01 -4.771208588441E-01
C39  3.348928483197E-01 -3.456777753840E-02  3.934514941296E-01
C40 -3.348928483197E-01  3.456777753840E-02 -3.934514941296E-01
C41  1.113601258766E-02 -2.469926998145E-01  3.370141631512E-01
C42 -1.113601258766E-02  2.469926998146E-01 -3.370141631512E-01
C43 -8.282360256636E-02 -3.385263179224E-01  4.085802084067E-01
C44  8.282360256636E-02  3.385263179224E-01 -4.085802084067E-01
C45 -6.141554017349E-02 -7.075875221127E-02  3.428519978421E-01
C46  6.141554017349E-02  7.075875221127E-02 -3.428519978421E-01
H47  1.086718150276E-01  9.916192687803E-03  1.413521536238E-01
H48 -1.086718150276E-01 -9.916192687803E-03 -1.413521536238E-01
H49 -1.863584350006E-01  1.432422216692E-01  1.503630805097E-01
H50  1.863584350006E-01 -1.432422216692E-01 -1.503630805097E-01
H51 -3.901095759232E-01  3.225667179390E-01  9.135409950539E-02
H52  3.901095759232E-01 -3.225667179390E-01 -9.135409950539E-02
H53 -2.906850241052E-01  4.568429709399E-01 -3.963097395692E-02
H54  2.906850241052E-01 -4.568429709399E-01  3.963097395692E-02
H55  1.080689803725E-02  4.052106829081E-01 -1.133289745432E-01
H56 -1.080689803725E-02 -4.052106829081E-01  1.133289745432E-01
H57  3.046829966395E-01  2.639104939663E-01 -1.232386630595E-01
H58 -3.046829966395E-01 -2.639104939663E-01  1.232386630595E-01
H59  2.736706014337E-01  4.313128508260E-01  3.652675594570E-01
H60 -2.736706014337E-01 -4.313128508260E-01 -3.652675594570E-01
H61  2.977627313164E-01  4.716821029725E-01  1.847973916793E-01
H62 -2.977627313164E-01 -4.716821029725E-01 -1.847973916793E-01
H63  1.169827239954E-01  4.341595956542E-01  2.592783699158E-01
H64 -1.169827239954E-01 -4.341595956542E-01 -2.592783699158E-01
H65  3.010399674317E-01  2.891559723101E-01  2.364905820019E-01
H66 -3.010399674317E-01 -2.891559723101E-01 -2.364905820019E-01
H67 -4.401320794462E-01  3.075069519871E-01  2.842563387326E-01
H68  4.401320794462E-01 -3.075069519871E-01 -2.842563387326E-01
H69 -4.235876105520E-01  4.739057318962E-01  3.346813770171E-01
H70  4.235876105520E-01 -4.739057318962E-01 -3.346813770171E-01
H71 -4.146753743284E-01  4.851361822875E-01  2.308401469422E-01
H72  4.146753743284E-01 -4.851361822875E-01 -2.308401469422E-01
H73  4.955308131196E-01 -2.566950266637E-01  3.673468129579E-01
H74 -4.955308131196E-01  2.566950266637E-01 -3.673468129579E-01
H75  3.840221252204E-01 -2.484234372682E-01 -4.847711353690E-01
H76 -3.840221252204E-01  2.484234372682E-01  4.847711353690E-01
H77  3.292479793188E-01 -4.130083977488E-01  4.773727161471E-01
H78 -3.292479793188E-01  4.130083977488E-01 -4.773727161471E-01
H79  1.741392311693E-01 -2.437735035426E-01 -4.938161052586E-01
H80 -1.741392311693E-01  2.437735035426E-01  4.938161052586E-01
H81  2.022757945407E-01  1.725871051868E-02  4.201731874053E-01
H82 -2.022757945407E-01 -1.725871051868E-02 -4.201731874053E-01
H83  3.713785533443E-01  1.483133378173E-02  3.329739673973E-01
H84 -3.713785533443E-01 -1.483133378173E-02 -3.329739673973E-01
H85  4.135566921930E-01  3.858484009079E-03  4.293282004682E-01
H86 -4.135566921930E-01 -3.858484009079E-03 -4.293282004682E-01
H87 -1.175447125228E-02 -2.890214031240E-01  2.821677119179E-01
H88  1.175447125228E-02  2.890214031240E-01 -2.821677119179E-01
H89 -3.716927296056E-02 -4.649750324043E-01  4.042721846019E-01
H90  3.716927296056E-02  4.649750324043E-01 -4.042721846019E-01
H91 -2.201988280870E-01 -3.197113633158E-01  4.121249765049E-01
H92  2.201988280870E-01  3.197113633158E-01 -4.121249765049E-01
H93 -6.801064650467E-02 -3.001387967933E-01  4.656347386735E-01
H94  6.801064650467E-02  3.001387967933E-01 -4.656347386735E-01
H95  8.162029767973E-03 -3.146605031641E-03  2.939876951601E-01
H96 -8.162029767973E-03  3.146605031641E-03 -2.939876951601E-01
H97 -5.611332143322E-02 -2.270069910984E-02  3.994751500669E-01
H98  5.611332143322E-02  2.270069910984E-02 -3.994751500669E-01
H99 -1.957665173811E-01 -4.988899503751E-02  3.406570706222E-01
H100  1.957665173811E-01  4.988899503751E-02 -3.406570706222E-01


#===END

data_OPT_STEP_26

_symmetry_space_group_name_H-M 'P 1'
_cell_length_a      8.16174560
_cell_length_b      8.65806750
_cell_length_c     17.22996504
_cell_angle_alpha   86.428263
_cell_angle_beta   75.608805
_cell_angle_gamma   80.060100

loop_
_atom_site_label
_atom_site_fract_x
_atom_site_fract_y
_atom_site_fract_z
SI1  2.576410181326E-01 -2.933942857949E-01  3.177421212448E-01
SI2 -2.576410181326E-01  2.933942857949E-01 -3.177421212448E-01
C3  4.444538089515E-01 -7.176977710561E-02  7.684897907804E-02
C4 -4.444538089515E-01  7.176977710561E-02 -7.684897907804E-02
C5  3.251349779249E-01  3.350549846904E-02  4.366981360627E-02
C6 -3.251349779249E-01 -3.350549846904E-02 -4.366981360627E-02
C7  1.510377546292E-01  6.768464569656E-02  8.411473041989E-02
C8 -1.510377546292E-01 -6.768464569656E-02 -8.411473041989E-02
C9  3.293677204349E-02  1.693641042288E-01  5.233813468208E-02
C10 -3.293677204349E-02 -1.693641042288E-01 -5.233813468208E-02
C11 -1.444256398300E-01  2.025245294129E-01  9.308403929922E-02
C12  1.444256398300E-01 -2.025245294129E-01 -9.308403929922E-02
C13 -2.576420000844E-01  3.026388190003E-01  6.018412862433E-02
C14  2.576420000844E-01 -3.026388190003E-01 -6.018412862433E-02
C15 -2.014284372600E-01  3.777655925901E-01 -1.564100989610E-02
C16  2.014284372600E-01 -3.777655925901E-01  1.564100989610E-02
C17 -3.425022527626E-02  3.492504822219E-01 -5.665073132124E-02
C18  3.425022527626E-02 -3.492504822219E-01  5.665073132124E-02
C19  8.935309195666E-02  2.437271217447E-01 -2.491194920153E-02
C20 -8.935309195666E-02 -2.437271217447E-01  2.491194920153E-02
C21  2.601875988192E-01  2.103557137135E-01 -6.555803040111E-02
C22 -2.601875988192E-01 -2.103557137135E-01  6.555803040111E-02
C23  3.814108335628E-01  1.065365168421E-01 -3.411272285123E-02
C24 -3.814108335628E-01 -1.065365168421E-01  3.411272285123E-02
C25  3.890384405745E-01 -1.420193721030E-01  1.532514421373E-01
C26 -3.890384405745E-01  1.420193721030E-01 -1.532514421373E-01
C27  3.406983619960E-01 -2.006989110494E-01  2.192603067377E-01
C28 -3.406983619960E-01  2.006989110494E-01 -2.192603067377E-01
C29  3.311753416814E-01  4.837578107116E-01  3.082424985911E-01
C30 -3.311753416814E-01 -4.837578107116E-01 -3.082424985911E-01
C31  2.595852419343E-01  4.166698304860E-01  2.453014621488E-01
C32 -2.595852419343E-01 -4.166698304860E-01 -2.453014621488E-01
C33 -4.727747207126E-01  4.384697952461E-01  2.902802711876E-01
C34  4.727747207126E-01 -4.384697952461E-01 -2.902802711876E-01
C35  3.597140611335E-01 -2.131562123877E-01  3.929071861827E-01
C36 -3.597140611335E-01  2.131562123877E-01 -3.929071861827E-01
C37  3.106958810541E-01 -2.841873918766E-01  4.778445181582E-01
C38 -3.106958810541E-01  2.841873918766E-01 -4.778445181582E-01
C39  3.337962541162E-01 -3.306253878329E-02  3.941870939606E-01
C40 -3.337962541162E-01  3.306253878329E-02 -3.941870939606E-01
C41  1.175807684275E-02 -2.477650149819E-01  3.373005042696E-01
C42 -1.175807684275E-02  2.477650149819E-01 -3.373005042696E-01
C43 -8.192004597342E-02 -3.391610071755E-01  4.092303187398E-01
C44  8.192004597342E-02  3.391610071755E-01 -4.092303187398E-01
C45 -6.187959243297E-02 -7.190430379090E-02  3.419010033408E-01
C46  6.187959243297E-02  7.190430379090E-02 -3.419010033408E-01
H47  1.085019866389E-01  9.986775287404E-03  1.414743541959E-01
H48 -1.085019866389E-01 -9.986775287404E-03 -1.414743541959E-01
H49 -1.869130017954E-01  1.448908790648E-01  1.505329130721E-01
H50  1.869130017954E-01 -1.448908790648E-01 -1.505329130721E-01
H51 -3.920405599231E-01  3.245966243291E-01  9.129543230064E-02
H52  3.920405599231E-01 -3.245966243291E-01 -9.129543230064E-02
H53 -2.934189225584E-01  4.591779525635E-01 -4.002679862627E-02
H54  2.934189225584E-01 -4.591779525635E-01  4.002679862627E-02
H55  8.536833277563E-03  4.076083936630E-01 -1.138138045974E-01
H56 -8.536833277563E-03 -4.076083936630E-01  1.138138045974E-01
H57  3.029515099535E-01  2.645737129309E-01 -1.238348665970E-01
H58 -3.029515099535E-01 -2.645737129309E-01  1.238348665970E-01
H59  2.771000272888E-01  4.321303304096E-01  3.669349143596E-01
H60 -2.771000272888E-01 -4.321303304096E-01 -3.669349143596E-01
H61  3.003876625955E-01  4.730776737405E-01  1.866391413504E-01
H62 -3.003876625955E-01 -4.730776737405E-01 -1.866391413504E-01
H63  1.194529120630E-01  4.339288888898E-01  2.609707503111E-01
H64 -1.194529120630E-01 -4.339288888898E-01 -2.609707503111E-01
H65  3.049825720350E-01  2.902892714783E-01  2.387580891775E-01
H66 -3.049825720350E-01 -2.902892714783E-01 -2.387580891775E-01
H67 -4.351737534913E-01  3.107819942111E-01  2.867148676580E-01
H68  4.351737534913E-01 -3.107819942111E-01 -2.867148676580E-01
H69 -4.194614546458E-01  4.774746425393E-01  3.365291241775E-01
H70  4.194614546458E-01 -4.774746425393E-01 -3.365291241775E-01
H71 -4.110339371677E-01  4.888203547174E-01  2.328331305269E-01
H72  4.110339371677E-01 -4.888203547174E-01 -2.328331305269E-01
H73  4.974399318281E-01 -2.532834411715E-01  3.684108398611E-01
H74 -4.974399318281E-01  2.532834411715E-01 -3.684108398611E-01
H75  3.853494908466E-01 -2.472905312210E-01 -4.838477859726E-01
H76 -3.853494908466E-01  2.472905312210E-01  4.838477859726E-01
H77  3.332301247482E-01 -4.125533910901E-01  4.781484826574E-01
H78 -3.332301247482E-01  4.125533910901E-01 -4.781484826574E-01
H79  1.752708369016E-01 -2.457277245330E-01 -4.934476191267E-01
H80 -1.752708369016E-01  2.457277245330E-01  4.934476191267E-01
H81  2.000964203452E-01  1.699611798572E-02  4.201594682238E-01
H82 -2.000964203452E-01 -1.699611798572E-02 -4.201594682238E-01
H83  3.707378402536E-01  1.725148220043E-02  3.338282403220E-01
H84 -3.707378402536E-01 -1.725148220043E-02 -3.338282403220E-01
H85  4.112216602832E-01  6.105665909556E-03  4.306021051083E-01
H86 -4.112216602832E-01 -6.105665909556E-03 -4.306021051083E-01
H87 -1.103017403773E-02 -2.907958303629E-01  2.828189582282E-01
H88  1.103017403773E-02  2.907958303629E-01 -2.828189582282E-01
H89 -3.546985331980E-02 -4.654548269126E-01  4.058228874850E-01
H90  3.546985331980E-02  4.654548269126E-01 -4.058228874850E-01
H91 -2.197810959325E-01 -3.214662283966E-01  4.125029250728E-01
H92  2.197810959325E-01  3.214662283966E-01 -4.125029250728E-01
H93 -6.718634057516E-02 -2.997244277260E-01  4.659305417969E-01
H94  6.718634057516E-02  2.997244277260E-01 -4.659305417969E-01
H95  7.558301354007E-03 -4.342417603289E-03  2.927538360851E-01
H96 -7.558301354007E-03  4.342417603289E-03 -2.927538360851E-01
H97 -5.673352043454E-02 -2.293212055760E-02  3.980896886784E-01
H98  5.673352043454E-02  2.293212055760E-02 -3.980896886784E-01
H99 -1.967936218999E-01 -5.219458632282E-02  3.394454302128E-01
H100  1.967936218999E-01  5.219458632282E-02 -3.394454302128E-01


#===END

data_OPT_STEP_27

_symmetry_space_group_name_H-M 'P 1'
_cell_length_a      8.17533787
_cell_length_b      8.66681216
_cell_length_c     17.20963764
_cell_angle_alpha   86.531021
_cell_angle_beta   75.526900
_cell_angle_gamma   79.999704

loop_
_atom_site_label
_atom_site_fract_x
_atom_site_fract_y
_atom_site_fract_z
SI1  2.573757855633E-01 -2.935826816635E-01  3.176794436145E-01
SI2 -2.573757855633E-01  2.935826816635E-01 -3.176794436145E-01
C3  4.443543548090E-01 -7.181911462520E-02  7.682585826810E-02
C4 -4.443543548090E-01  7.181911462520E-02 -7.682585826810E-02
C5  3.251159483604E-01  3.322014420298E-02  4.367905515080E-02
C6 -3.251159483604E-01 -3.322014420298E-02 -4.367905515080E-02
C7  1.511879355943E-01  6.759117393769E-02  8.421214243982E-02
C8 -1.511879355943E-01 -6.759117393769E-02 -8.421214243982E-02
C9  3.317305979204E-02  1.689838677009E-01  5.243101074770E-02
C10 -3.317305979204E-02 -1.689838677009E-01 -5.243101074770E-02
C11 -1.441501989266E-01  2.020819691081E-01  9.318987747800E-02
C12  1.441501989266E-01 -2.020819691081E-01 -9.318987747800E-02
C13 -2.572204407924E-01  3.019056689998E-01  6.025137053207E-02
C14  2.572204407924E-01 -3.019056689998E-01 -6.025137053207E-02
C15 -2.008614601582E-01  3.770021804722E-01 -1.557882598816E-02
C16  2.008614601582E-01 -3.770021804722E-01  1.557882598816E-02
C17 -3.374483090139E-02  3.485149234738E-01 -5.659956032579E-02
C18  3.374483090139E-02 -3.485149234738E-01  5.659956032579E-02
C19  8.967347801382E-02  2.431805323949E-01 -2.484453395507E-02
C20 -8.967347801382E-02 -2.431805323949E-01  2.484453395507E-02
C21  2.604668766833E-01  2.099998645698E-01 -6.549368344715E-02
C22 -2.604668766833E-01 -2.099998645698E-01  6.549368344715E-02
C23  3.814770129502E-01  1.062042042644E-01 -3.409474940833E-02
C24 -3.814770129502E-01 -1.062042042644E-01  3.409474940833E-02
C25  3.888764156458E-01 -1.422621058822E-01  1.531862633268E-01
C26 -3.888764156458E-01  1.422621058822E-01 -1.531862633268E-01
C27  3.405760395906E-01 -2.012065980528E-01  2.191180868586E-01
C28 -3.405760395906E-01  2.012065980528E-01 -2.191180868586E-01
C29  3.304828269147E-01  4.836875726096E-01  3.079880365791E-01
C30 -3.304828269147E-01 -4.836875726096E-01 -3.079880365791E-01
C31  2.588101035124E-01  4.168464921473E-01  2.449853095481E-01
C32 -2.588101035124E-01 -4.168464921473E-01 -2.449853095481E-01
C33 -4.737243071993E-01  4.378519389251E-01  2.898208736633E-01
C34  4.737243071993E-01 -4.378519389251E-01 -2.898208736633E-01
C35  3.595610503894E-01 -2.135708283841E-01  3.928629049735E-01
C36 -3.595610503894E-01  2.135708283841E-01 -3.928629049735E-01
C37  3.104648467245E-01 -2.838997031729E-01  4.779661118982E-01
C38 -3.104648467245E-01  2.838997031729E-01 -4.779661118982E-01
C39  3.341029005007E-01 -3.367905297557E-02  3.940734449970E-01
C40 -3.341029005007E-01  3.367905297557E-02 -3.940734449970E-01
C41  1.174397563435E-02 -2.472060799625E-01  3.374295562636E-01
C42 -1.174397563435E-02  2.472060799625E-01 -3.374295562636E-01
C43 -8.218808700599E-02 -3.382073441768E-01  4.094044085411E-01
C44  8.218808700599E-02  3.382073441768E-01 -4.094044085411E-01
C45 -6.146609933104E-02 -7.140025686467E-02  3.422382189431E-01
C46  6.146609933104E-02  7.140025686467E-02 -3.422382189431E-01
H47  1.087485963484E-01  1.034089115401E-02  1.416433281346E-01
H48 -1.087485963484E-01 -1.034089115401E-02 -1.416433281346E-01
H49 -1.865962234129E-01  1.449746329663E-01  1.507335233634E-01
H50  1.865962234129E-01 -1.449746329663E-01 -1.507335233634E-01
H51 -3.914997400039E-01  3.240969567061E-01  9.138020650987E-02
H52  3.914997400039E-01 -3.240969567061E-01 -9.138020650987E-02
H53 -2.927704425936E-01  4.581256542724E-01 -3.998937360841E-02
H54  2.927704425936E-01 -4.581256542724E-01  3.998937360841E-02
H55  9.287641730695E-03  4.071454445871E-01 -1.137135468194E-01
H56 -9.287641730695E-03 -4.071454445871E-01  1.137135468194E-01
H57  3.034523502918E-01  2.645880117854E-01 -1.237039415454E-01
H58 -3.034523502918E-01 -2.645880117854E-01  1.237039415454E-01
H59  2.764216712021E-01  4.323798957799E-01  3.667757751512E-01
H60 -2.764216712021E-01 -4.323798957799E-01 -3.667757751512E-01
H61  2.994924732713E-01  4.730701655476E-01  1.862730472005E-01
H62 -2.994924732713E-01 -4.730701655476E-01 -1.862730472005E-01
H63  1.188733397846E-01  4.343687545765E-01  2.608104839624E-01
H64 -1.188733397846E-01 -4.343687545765E-01 -2.608104839624E-01
H65  3.040688344147E-01  2.905883114584E-01  2.382733314044E-01
H66 -3.040688344147E-01 -2.905883114584E-01 -2.382733314044E-01
H67 -4.363754780256E-01  3.102646272687E-01  2.862740909190E-01
H68  4.363754780256E-01 -3.102646272687E-01 -2.862740909190E-01
H69 -4.203132865726E-01  4.769255219257E-01  3.360443438978E-01
H70  4.203132865726E-01 -4.769255219257E-01 -3.360443438978E-01
H71 -4.120304488125E-01  4.876322552470E-01  2.322190866571E-01
H72  4.120304488125E-01 -4.876322552470E-01 -2.322190866571E-01
H73  4.970510136180E-01 -2.542038613942E-01  3.682762621381E-01
H74 -4.970510136180E-01  2.542038613942E-01 -3.682762621381E-01
H75  3.851666382441E-01 -2.470406587671E-01 -4.838131251031E-01
H76 -3.851666382441E-01  2.470406587671E-01  4.838131251031E-01
H77  3.327413883820E-01 -4.121075231620E-01  4.783385397760E-01
H78 -3.327413883820E-01  4.121075231620E-01 -4.783385397760E-01
H79  1.752984164442E-01 -2.449329615101E-01 -4.931916947056E-01
H80 -1.752984164442E-01  2.449329615101E-01  4.931916947056E-01
H81  2.007808966316E-01  1.686683404657E-02  4.204119894257E-01
H82 -2.007808966316E-01 -1.686683404657E-02 -4.204119894257E-01
H83  3.705321416155E-01  1.619901166213E-02  3.335899821527E-01
H84 -3.705321416155E-01 -1.619901166213E-02 -3.335899821527E-01
H85  4.120271018421E-01  5.288918659707E-03  4.301929358356E-01
H86 -4.120271018421E-01 -5.288918659707E-03 -4.301929358356E-01
H87 -1.103925842169E-02 -2.899823962818E-01  2.828415200710E-01
H88  1.103925842169E-02  2.899823962818E-01 -2.828415200710E-01
H89 -3.598444228042E-02 -4.643461720244E-01  4.058803548990E-01
H90  3.598444228042E-02  4.643461720244E-01 -4.058803548990E-01
H91 -2.198834131285E-01 -3.201394763654E-01  4.127335470259E-01
H92  2.198834131285E-01  3.201394763654E-01 -4.127335470259E-01
H93 -6.759234434817E-02 -2.989413352161E-01  4.662039339409E-01
H94  6.759234434817E-02  2.989413352161E-01 -4.662039339409E-01
H95  7.911500426446E-03 -4.238403399580E-03  2.929809454287E-01
H96 -7.911500426446E-03  4.238403399580E-03 -2.929809454287E-01
H97 -5.597788059414E-02 -2.253866103191E-02  3.984942447758E-01
H98  5.597788059414E-02  2.253866103191E-02 -3.984942447758E-01
H99 -1.963157647475E-01 -5.120072844671E-02  3.400014131315E-01
H100  1.963157647475E-01  5.120072844671E-02 -3.400014131315E-01


#===END

data_OPT_STEP_28

_symmetry_space_group_name_H-M 'P 1'
_cell_length_a      8.18939040
_cell_length_b      8.65751653
_cell_length_c     17.20241000
_cell_angle_alpha   86.548670
_cell_angle_beta   75.496629
_cell_angle_gamma   80.024484

loop_
_atom_site_label
_atom_site_fract_x
_atom_site_fract_y
_atom_site_fract_z
SI1  2.575862421416E-01 -2.944948508525E-01  3.175223286719E-01
SI2 -2.575862421416E-01  2.944948508525E-01 -3.175223286719E-01
C3  4.446820381708E-01 -7.195250364663E-02  7.677879320092E-02
C4 -4.446820381708E-01  7.195250364663E-02 -7.677879320092E-02
C5  3.256228781217E-01  3.336741057713E-02  4.375228563261E-02
C6 -3.256228781217E-01 -3.336741057713E-02 -4.375228563261E-02
C7  1.520324256133E-01  6.751601412083E-02  8.430154062388E-02
C8 -1.520324256133E-01 -6.751601412083E-02 -8.430154062388E-02
C9  3.408717410335E-02  1.689854211905E-01  5.259161347881E-02
C10 -3.408717410335E-02 -1.689854211905E-01 -5.259161347881E-02
C11 -1.429651307583E-01  2.017705332041E-01  9.331652231652E-02
C12  1.429651307583E-01 -2.017705332041E-01 -9.331652231652E-02
C13 -2.560943627403E-01  3.010990218267E-01  6.031708216545E-02
C14  2.560943627403E-01 -3.010990218267E-01 -6.031708216545E-02
C15 -2.001378681634E-01  3.760517349298E-01 -1.551996057252E-02
C16  2.001378681634E-01 -3.760517349298E-01  1.551996057252E-02
C17 -3.333568036814E-02  3.478064970878E-01 -5.651521157549E-02
C18  3.333568036814E-02 -3.478064970878E-01  5.651521157549E-02
C19  9.024113841394E-02  2.432112310271E-01 -2.465638210896E-02
C20 -9.024113841394E-02 -2.432112310271E-01  2.465638210896E-02
C21  2.605869781346E-01  2.099914810312E-01 -6.534929706171E-02
C22 -2.605869781346E-01 -2.099914810312E-01  6.534929706171E-02
C23  3.817296521449E-01  1.067329960422E-01 -3.391793407016E-02
C24 -3.817296521449E-01 -1.067329960422E-01  3.391793407016E-02
C25  3.893221670871E-01 -1.428401176471E-01  1.530581513616E-01
C26 -3.893221670871E-01  1.428401176471E-01 -1.530581513616E-01
C27  3.411385034294E-01 -2.023975041009E-01  2.188418404211E-01
C28 -3.411385034294E-01  2.023975041009E-01 -2.188418404211E-01
C29  3.294677084938E-01  4.824301741973E-01  3.079919374847E-01
C30 -3.294677084938E-01 -4.824301741973E-01 -3.079919374847E-01
C31  2.577151264275E-01  4.157702663988E-01  2.449481845631E-01
C32 -2.577151264275E-01 -4.157702663988E-01 -2.449481845631E-01
C33 -4.751550852387E-01  4.357259054800E-01  2.899257120256E-01
C34  4.751550852387E-01 -4.357259054800E-01 -2.899257120256E-01
C35  3.601287971818E-01 -2.146056018078E-01  3.925900474333E-01
C36 -3.601287971818E-01  2.146056018078E-01 -3.925900474333E-01
C37  3.109434892107E-01 -2.845307061594E-01  4.778384223545E-01
C38 -3.109434892107E-01  2.845307061594E-01 -4.778384223545E-01
C39  3.352124452429E-01 -3.469939625548E-02  3.935850511520E-01
C40 -3.352124452429E-01  3.469939625548E-02 -3.935850511520E-01
C41  1.233192522578E-02 -2.470472580351E-01  3.373730984854E-01
C42 -1.233192522578E-02  2.470472580351E-01 -3.373730984854E-01
C43 -8.207117287668E-02 -3.376745887894E-01  4.094213331418E-01
C44  8.207117287668E-02  3.376745887894E-01 -4.094213331418E-01
C45 -5.984280973907E-02 -7.090064763673E-02  3.421918561491E-01
C46  5.984280973907E-02  7.090064763673E-02 -3.421918561491E-01
H47  1.096385288086E-01  9.530348562867E-03  1.415757097044E-01
H48 -1.096385288086E-01 -9.530348562867E-03 -1.415757097044E-01
H49 -1.854714200893E-01  1.438197821943E-01  1.507028177206E-01
H50  1.854714200893E-01 -1.438197821943E-01 -1.507028177206E-01
H51 -3.901056323504E-01  3.233326719108E-01  9.140589664928E-02
H52  3.901056323504E-01 -3.233326719108E-01 -9.140589664928E-02
H53 -2.921907294302E-01  4.566661072906E-01 -3.995619520270E-02
H54  2.921907294302E-01 -4.566661072906E-01  3.995619520270E-02
H55  9.326056998784E-03  4.059547159245E-01 -1.137083073332E-01
H56 -9.326056998784E-03 -4.059547159245E-01  1.137083073332E-01
H57  3.031483109917E-01  2.642584466858E-01 -1.235987535867E-01
H58 -3.031483109917E-01 -2.642584466858E-01  1.235987535867E-01
H59  2.750295618682E-01  4.314569900138E-01  3.668516733483E-01
H60 -2.750295618682E-01 -4.314569900138E-01 -3.668516733483E-01
H61  2.987768200500E-01  4.717646401995E-01  1.861759573995E-01
H62 -2.987768200500E-01 -4.717646401995E-01 -1.861759573995E-01
H63  1.180198426306E-01  4.338507727654E-01  2.607116627994E-01
H64 -1.180198426306E-01 -4.338507727654E-01 -2.607116627994E-01
H65  3.022919868581E-01  2.893469493382E-01  2.383060724884E-01
H66 -3.022919868581E-01 -2.893469493382E-01 -2.383060724884E-01
H67 -4.385400276859E-01  3.079835809676E-01  2.866562510270E-01
H68  4.385400276859E-01 -3.079835809676E-01 -2.866562510270E-01
H69 -4.216768489278E-01  4.749809449618E-01  3.360947375676E-01
H70  4.216768489278E-01 -4.749809449618E-01 -3.360947375676E-01
H71 -4.131292775978E-01  4.848260768505E-01  2.321833715652E-01
H72  4.131292775978E-01 -4.848260768505E-01 -2.321833715652E-01
H73  4.972345615862E-01 -2.556222653792E-01  3.679816488247E-01
H74 -4.972345615862E-01  2.556222653792E-01 -3.679816488247E-01
H75  3.852474786070E-01 -2.473374602104E-01 -4.839593111492E-01
H76 -3.852474786070E-01  2.473374602104E-01  4.839593111492E-01
H77  3.332878825637E-01 -4.126658178130E-01  4.784239736547E-01
H78 -3.332878825637E-01  4.126658178130E-01 -4.784239736547E-01
H79  1.760722198769E-01 -2.456019216081E-01 -4.934095860258E-01
H80 -1.760722198769E-01  2.456019216081E-01  4.934095860258E-01
H81  2.023567829272E-01  1.610923495703E-02  4.201547993315E-01
H82 -2.023567829272E-01 -1.610923495703E-02 -4.201547993315E-01
H83  3.711147282115E-01  1.510942736750E-02  3.330325749480E-01
H84 -3.711147282115E-01 -1.510942736750E-02 -3.330325749480E-01
H85  4.135383750755E-01  4.102670402158E-03  4.293842058092E-01
H86 -4.135383750755E-01 -4.102670402158E-03 -4.293842058092E-01
H87 -1.067985676185E-02 -2.896353734197E-01  2.828010070769E-01
H88  1.067985676185E-02  2.896353734197E-01 -2.828010070769E-01
H89 -3.682673160040E-02 -4.639520350750E-01  4.058595721813E-01
H90  3.682673160040E-02  4.639520350750E-01 -4.058595721813E-01
H91 -2.195937035940E-01 -3.187617472974E-01  4.128861331315E-01
H92  2.195937035940E-01  3.187617472974E-01 -4.128861331315E-01
H93 -6.707644698995E-02 -2.987425434686E-01  4.661840133183E-01
H94  6.707644698995E-02  2.987425434686E-01 -4.661840133183E-01
H95  9.413358190922E-03 -4.198114308200E-03  2.927211177107E-01
H96 -9.413358190922E-03  4.198114308200E-03 -2.927211177107E-01
H97 -5.338133382061E-02 -2.199698624156E-02  3.983260061816E-01
H98  5.338133382061E-02  2.199698624156E-02 -3.983260061816E-01
H99 -1.947252516244E-01 -4.997841221982E-02  3.403254740409E-01
H100  1.947252516244E-01  4.997841221982E-02 -3.403254740409E-01


#===END

data_OPT_STEP_29

_symmetry_space_group_name_H-M 'P 1'
_cell_length_a      8.19165784
_cell_length_b      8.65687428
_cell_length_c     17.19837939
_cell_angle_alpha   86.568138
_cell_angle_beta   75.491133
_cell_angle_gamma   80.020021

loop_
_atom_site_label
_atom_site_fract_x
_atom_site_fract_y
_atom_site_fract_z
SI1  2.575890146347E-01 -2.945548281337E-01  3.174883074412E-01
SI2 -2.575890146347E-01  2.945548281337E-01 -3.174883074412E-01
C3  4.446853327800E-01 -7.204102452925E-02  7.674492882478E-02
C4 -4.446853327800E-01  7.204102452925E-02 -7.674492882478E-02
C5  3.256313437226E-01  3.323315828793E-02  4.372708081559E-02
C6 -3.256313437226E-01 -3.323315828793E-02 -4.372708081559E-02
C7  1.520968588401E-01  6.735362896434E-02  8.428582476756E-02
C8 -1.520968588401E-01 -6.735362896434E-02 -8.428582476756E-02
C9  3.412221865331E-02  1.686741517258E-01  5.255927660678E-02
C10 -3.412221865331E-02 -1.686741517258E-01 -5.255927660678E-02
C11 -1.429371834923E-01  2.012513258858E-01  9.324997780217E-02
C12  1.429371834923E-01 -2.012513258858E-01 -9.324997780217E-02
C13 -2.560260500344E-01  3.005892833022E-01  6.026136162294E-02
C14  2.560260500344E-01 -3.005892833022E-01 -6.026136162294E-02
C15 -2.000093185223E-01  3.758572500953E-01 -1.550810809001E-02
C16  2.000093185223E-01 -3.758572500953E-01  1.550810809001E-02
C17 -3.318467466401E-02  3.478531690514E-01 -5.647193300534E-02
C18  3.318467466401E-02 -3.478531690514E-01  5.647193300534E-02
C19  9.028902837723E-02  2.430378371463E-01 -2.465623954367E-02
C20 -9.028902837723E-02 -2.430378371463E-01  2.465623954367E-02
C21  2.606611254257E-01  2.100921283412E-01 -6.531111674237E-02
C22 -2.606611254257E-01 -2.100921283412E-01  6.531111674237E-02
C23  3.817091010461E-01  1.066349490873E-01 -3.392047015143E-02
C24 -3.817091010461E-01 -1.066349490873E-01  3.392047015143E-02
C25  3.893377244328E-01 -1.429809743832E-01  1.530102056280E-01
C26 -3.893377244328E-01  1.429809743832E-01 -1.530102056280E-01
C27  3.411780515536E-01 -2.026424019577E-01  2.187644966650E-01
C28 -3.411780515536E-01  2.026424019577E-01 -2.187644966650E-01
C29  3.292641440240E-01  4.823651359219E-01  3.079833205069E-01
C30 -3.292641440240E-01 -4.823651359219E-01 -3.079833205069E-01
C31  2.576082269258E-01  4.158020537053E-01  2.448730480856E-01
C32 -2.576082269258E-01 -4.158020537053E-01 -2.448730480856E-01
C33 -4.754155778762E-01  4.355093260257E-01  2.899954839277E-01
C34  4.754155778762E-01 -4.355093260257E-01 -2.899954839277E-01
C35  3.602337878037E-01 -2.146858618660E-01  3.925235433980E-01
C36 -3.602337878037E-01  2.146858618660E-01 -3.925235433980E-01
C37  3.108492400125E-01 -2.844033154482E-01  4.778259949695E-01
C38 -3.108492400125E-01  2.844033154482E-01 -4.778259949695E-01
C39  3.355964599544E-01 -3.475013211752E-02  3.934235370072E-01
C40 -3.355964599544E-01  3.475013211752E-02 -3.934235370072E-01
C41  1.241438373693E-02 -2.468976532573E-01  3.373534946504E-01
C42 -1.241438373693E-02  2.468976532573E-01 -3.373534946504E-01
C43 -8.204598075023E-02 -3.375820893719E-01  4.093696311110E-01
C44  8.204598075023E-02  3.375820893719E-01 -4.093696311110E-01
C45 -5.960995320679E-02 -7.068427187048E-02  3.422607548347E-01
C46  5.960995320679E-02  7.068427187048E-02 -3.422607548347E-01
H47  1.097477494304E-01  9.366039256526E-03  1.415540707189E-01
H48 -1.097477494304E-01 -9.366039256526E-03 -1.415540707189E-01
H49 -1.854466747733E-01  1.431959303167E-01  1.506083136908E-01
H50  1.854466747733E-01 -1.431959303167E-01 -1.506083136908E-01
H51 -3.900811688729E-01  3.226471248169E-01  9.129393089810E-02
H52  3.900811688729E-01 -3.226471248169E-01 -9.129393089810E-02
H53 -2.920335115402E-01  4.565326674949E-01 -3.990308290979E-02
H54  2.920335115402E-01 -4.565326674949E-01  3.990308290979E-02
H55  9.552998435721E-03  4.062826295075E-01 -1.136048951379E-01
H56 -9.552998435721E-03 -4.062826295075E-01  1.136048951379E-01
H57  3.032974045992E-01  2.647082248474E-01 -1.234931117267E-01
H58 -3.032974045992E-01 -2.647082248474E-01  1.234931117267E-01
H59  2.746493927309E-01  4.314443381525E-01  3.668380792728E-01
H60 -2.746493927309E-01 -4.314443381525E-01 -3.668380792728E-01
H61  2.989925433273E-01  4.716778070642E-01  1.860864382691E-01
H62 -2.989925433273E-01 -4.716778070642E-01 -1.860864382691E-01
H63  1.179183833527E-01  4.341804393878E-01  2.605510857910E-01
H64 -1.179183833527E-01 -4.341804393878E-01 -2.605510857910E-01
H65  3.019259644198E-01  2.893033263586E-01  2.382788924056E-01
H66 -3.019259644198E-01 -2.893033263586E-01 -2.382788924056E-01
H67 -4.389223540990E-01  3.077468857053E-01  2.866741422307E-01
H68  4.389223540990E-01 -3.077468857053E-01 -2.866741422307E-01
H69 -4.220342076920E-01  4.745839544261E-01  3.362337195079E-01
H70  4.220342076920E-01 -4.745839544261E-01 -3.362337195079E-01
H71 -4.132213092380E-01  4.846817521335E-01  2.322948511186E-01
H72  4.132213092380E-01 -4.846817521335E-01 -2.322948511186E-01
H73  4.972811764925E-01 -2.559110831760E-01  3.679058622222E-01
H74 -4.972811764925E-01  2.559110831760E-01 -3.679058622222E-01
H75  3.851449612400E-01 -2.472262590568E-01 -4.839611862803E-01
H76 -3.851449612400E-01  2.472262590568E-01  4.839611862803E-01
H77  3.329743467841E-01 -4.125813227245E-01  4.784750445299E-01
H78 -3.329743467841E-01  4.125813227245E-01 -4.784750445299E-01
H79  1.759969367827E-01 -2.452247254147E-01 -4.934572007707E-01
H80 -1.759969367827E-01  2.452247254147E-01  4.934572007707E-01
H81  2.028099602726E-01  1.627153238394E-02  4.199918927790E-01
H82 -2.028099602726E-01 -1.627153238394E-02 -4.199918927790E-01
H83  3.715617235866E-01  1.492752910344E-02  3.328333139723E-01
H84 -3.715617235866E-01 -1.492752910344E-02 -3.328333139723E-01
H85  4.139963292452E-01  4.002815734510E-03  4.291785203527E-01
H86 -4.139963292452E-01 -4.002815734510E-03 -4.291785203527E-01
H87 -1.059688899724E-02 -2.893592864070E-01  2.827359084467E-01
H88  1.059688899724E-02  2.893592864070E-01 -2.827359084467E-01
H89 -3.703932897960E-02 -4.639337478924E-01  4.056893005075E-01
H90  3.703932897960E-02  4.639337478924E-01 -4.056893005075E-01
H91 -2.195500321545E-01 -3.183932439762E-01  4.128900119571E-01
H92  2.195500321545E-01  3.183932439762E-01 -4.128900119571E-01
H93 -6.685663470102E-02 -2.988968124145E-01  4.661648663697E-01
H94  6.685663470102E-02  2.988968124145E-01 -4.661648663697E-01
H95  9.775055274006E-03 -3.872239815779E-03  2.928538549084E-01
H96 -9.775055274006E-03  3.872239815779E-03 -2.928538549084E-01
H97 -5.327400590698E-02 -2.194767799972E-02  3.984624480250E-01
H98  5.327400590698E-02  2.194767799972E-02 -3.984624480250E-01
H99 -1.944195954281E-01 -4.965218266186E-02  3.403373155297E-01
H100  1.944195954281E-01  4.965218266186E-02 -3.403373155297E-01


#===END

data_OPT_STEP_30

_symmetry_space_group_name_H-M 'P 1'
_cell_length_a      8.19700480
_cell_length_b      8.65512226
_cell_length_c     17.18917876
_cell_angle_alpha   86.623079
_cell_angle_beta   75.489990
_cell_angle_gamma   79.992223

loop_
_atom_site_label
_atom_site_fract_x
_atom_site_fract_y
_atom_site_fract_z
SI1  2.575562837674E-01 -2.948221896706E-01  3.174234457769E-01
SI2 -2.575562837674E-01  2.948221896706E-01 -3.174234457769E-01
C3  4.445845493946E-01 -7.244486700402E-02  7.664407464400E-02
C4 -4.445845493946E-01  7.244486700402E-02 -7.664407464400E-02
C5  3.256232621081E-01  3.299826094476E-02  4.368664542177E-02
C6 -3.256232621081E-01 -3.299826094476E-02 -4.368664542177E-02
C7  1.519977319896E-01  6.664552034912E-02  8.418054036729E-02
C8 -1.519977319896E-01 -6.664552034912E-02 -8.418054036729E-02
C9  3.421779267334E-02  1.683339198605E-01  5.253500949794E-02
C10 -3.421779267334E-02 -1.683339198605E-01 -5.253500949794E-02
C11 -1.429471356762E-01  2.002707446080E-01  9.310944359098E-02
C12  1.429471356762E-01 -2.002707446080E-01 -9.310944359098E-02
C13 -2.559430228369E-01  2.996618268218E-01  6.014489770236E-02
C14  2.559430228369E-01 -2.996618268218E-01 -6.014489770236E-02
C15 -1.998310929347E-01  3.754142957145E-01 -1.551070484680E-02
C16  1.998310929347E-01 -3.754142957145E-01  1.551070484680E-02
C17 -3.296369803482E-02  3.478345588073E-01 -5.641152207741E-02
C18  3.296369803482E-02 -3.478345588073E-01  5.641152207741E-02
C19  9.044617760581E-02  2.429780324627E-01 -2.461170805849E-02
C20 -9.044617760581E-02 -2.429780324627E-01  2.461170805849E-02
C21  2.607608539655E-01  2.101916372552E-01 -6.524857391696E-02
C22 -2.607608539655E-01 -2.101916372552E-01  6.524857391696E-02
C23  3.817341634544E-01  1.066401221193E-01 -3.389154047821E-02
C24 -3.817341634544E-01 -1.066401221193E-01  3.389154047821E-02
C25  3.892289139091E-01 -1.435234922968E-01  1.528859873059E-01
C26 -3.892289139091E-01  1.435234922968E-01 -1.528859873059E-01
C27  3.410993965462E-01 -2.033683772861E-01  2.185940706938E-01
C28 -3.410993965462E-01  2.033683772861E-01 -2.185940706938E-01
C29  3.289177652642E-01  4.820003222737E-01  3.079665486374E-01
C30 -3.289177652642E-01 -4.820003222737E-01 -3.079665486374E-01
C31  2.571963657598E-01  4.154488376336E-01  2.448354752914E-01
C32 -2.571963657598E-01 -4.154488376336E-01 -2.448354752914E-01
C33 -4.758946506238E-01  4.348422968489E-01  2.899723580675E-01
C34  4.758946506238E-01 -4.348422968489E-01 -2.899723580675E-01
C35  3.604237571224E-01 -2.149190115645E-01  3.924078030177E-01
C36 -3.604237571224E-01  2.149190115645E-01 -3.924078030177E-01
C37  3.108337571561E-01 -2.842970525753E-01  4.777772738601E-01
C38 -3.108337571561E-01  2.842970525753E-01 -4.777772738601E-01
C39  3.362460144608E-01 -3.489625483280E-02  3.932170049322E-01
C40 -3.362460144608E-01  3.489625483280E-02 -3.932170049322E-01
C41  1.255057205786E-02 -2.467767205870E-01  3.373175527277E-01
C42 -1.255057205786E-02  2.467767205870E-01 -3.373175527277E-01
C43 -8.197127920656E-02 -3.372012446542E-01  4.093579742843E-01
C44  8.197127920656E-02  3.372012446542E-01 -4.093579742843E-01
C45 -5.921179224855E-02 -7.046537201745E-02  3.422402608449E-01
C46  5.921179224855E-02  7.046537201745E-02 -3.422402608449E-01
H47  1.097335532216E-01  8.747629474044E-03  1.414487420548E-01
H48 -1.097335532216E-01 -8.747629474044E-03 -1.414487420548E-01
H49 -1.853731099702E-01  1.422815134256E-01  1.504511119646E-01
H50  1.853731099702E-01 -1.422815134256E-01 -1.504511119646E-01
H51 -3.900965572344E-01  3.213401454049E-01  9.105180662836E-02
H52  3.900965572344E-01 -3.213401454049E-01 -9.105180662836E-02
H53 -2.917857652843E-01  4.563161359066E-01 -3.980483787368E-02
H54  2.917857652843E-01 -4.563161359066E-01  3.980483787368E-02
H55  1.008180273446E-02  4.072620809719E-01 -1.133435877161E-01
H56 -1.008180273446E-02 -4.072620809719E-01  1.133435877161E-01
H57  3.034648445517E-01  2.652137786403E-01 -1.233392659081E-01
H58 -3.034648445517E-01 -2.652137786403E-01  1.233392659081E-01
H59  2.742438060060E-01  4.312406086492E-01  3.668463779228E-01
H60 -2.742438060060E-01 -4.312406086492E-01 -3.668463779228E-01
H61  2.988228044838E-01  4.710648213984E-01  1.860020092990E-01
H62 -2.988228044838E-01 -4.710648213984E-01 -1.860020092990E-01
H63  1.175636131851E-01  4.342733751201E-01  2.604881818769E-01
H64 -1.175636131851E-01 -4.342733751201E-01 -2.604881818769E-01
H65  3.011479520869E-01  2.888090711518E-01  2.383036132697E-01
H66 -3.011479520869E-01 -2.888090711518E-01 -2.383036132697E-01
H67 -4.396080999142E-01  3.069938284543E-01  2.865773709397E-01
H68  4.396080999142E-01 -3.069938284543E-01 -2.865773709397E-01
H69 -4.224849430003E-01  4.737280915380E-01  3.362515537549E-01
H70  4.224849430003E-01 -4.737280915380E-01 -3.362515537549E-01
H71 -4.136421032295E-01  4.840284179013E-01  2.322891867818E-01
H72  4.136421032295E-01 -4.840284179013E-01 -2.322891867818E-01
H73  4.973568635946E-01 -2.565101448124E-01  3.677748444778E-01
H74 -4.973568635946E-01  2.565101448124E-01 -3.677748444778E-01
H75  3.851668198418E-01 -2.471253911019E-01 -4.839832621145E-01
H76 -3.851668198418E-01  2.471253911019E-01  4.839832621145E-01
H77  3.326147814218E-01 -4.125821789486E-01  4.784806531102E-01
H78 -3.326147814218E-01  4.125821789486E-01 -4.784806531102E-01
H79  1.760418730614E-01 -2.447016049571E-01 -4.935454381552E-01
H80 -1.760418730614E-01  2.447016049571E-01  4.935454381552E-01
H81  2.036332623999E-01  1.648119755897E-02  4.198273995057E-01
H82 -2.036332623999E-01 -1.648119755897E-02 -4.198273995057E-01
H83  3.721805426770E-01  1.451894778640E-02  3.325610000963E-01
H84 -3.721805426770E-01 -1.451894778640E-02 -3.325610000963E-01
H85  4.148442979600E-01  3.826167388665E-03  4.289017239966E-01
H86 -4.148442979600E-01 -3.826167388665E-03 -4.289017239966E-01
H87 -1.049537804763E-02 -2.892921414697E-01  2.826667591266E-01
H88  1.049537804763E-02  2.892921414697E-01 -2.826667591266E-01
H89 -3.737357000278E-02 -4.637132938658E-01  4.055652727291E-01
H90  3.737357000278E-02  4.637132938658E-01 -4.055652727291E-01
H91 -2.194246150960E-01 -3.175329911498E-01  4.129743977108E-01
H92  2.194246150960E-01  3.175329911498E-01 -4.129743977108E-01
H93 -6.640413087504E-02 -2.986797426237E-01  4.661759340258E-01
H94  6.640413087504E-02  2.986797426237E-01 -4.661759340258E-01
H95  1.025789573835E-02 -3.735106912627E-03  2.928309911522E-01
H96 -1.025789573835E-02  3.735106912627E-03 -2.928309911522E-01
H97 -5.291199248369E-02 -2.170603327071E-02  3.984801775857E-01
H98  5.291199248369E-02  2.170603327071E-02 -3.984801775857E-01
H99 -1.939228740495E-01 -4.931659663044E-02  3.402984469149E-01
H100  1.939228740495E-01  4.931659663044E-02 -3.402984469149E-01


#===END

data_OPT_STEP_31

_symmetry_space_group_name_H-M 'P 1'
_cell_length_a      8.20304770
_cell_length_b      8.65458460
_cell_length_c     17.17905332
_cell_angle_alpha   86.681408
_cell_angle_beta   75.483914
_cell_angle_gamma   79.965929

loop_
_atom_site_label
_atom_site_fract_x
_atom_site_fract_y
_atom_site_fract_z
SI1  2.575228107050E-01 -2.950906759269E-01  3.173625738384E-01
SI2 -2.575228107050E-01  2.950906759269E-01 -3.173625738384E-01
C3  4.445323509444E-01 -7.264563708951E-02  7.658943319671E-02
C4 -4.445323509444E-01  7.264563708951E-02 -7.658943319671E-02
C5  3.255137757475E-01  3.253543027743E-02  4.360985603346E-02
C6 -3.255137757475E-01 -3.253543027743E-02 -4.360985603346E-02
C7  1.519868449392E-01  6.622454914660E-02  8.412891904480E-02
C8 -1.519868449392E-01 -6.622454914660E-02 -8.412891904480E-02
C9  3.420107605907E-02  1.676994082537E-01  5.246629727293E-02
C10 -3.420107605907E-02 -1.676994082537E-01 -5.246629727293E-02
C11 -1.428481236381E-01  1.996179593981E-01  9.303529663048E-02
C12  1.428481236381E-01 -1.996179593981E-01 -9.303529663048E-02
C13 -2.557422396200E-01  2.990809563906E-01  6.009416938598E-02
C14  2.557422396200E-01 -2.990809563906E-01 -6.009416938598E-02
C15 -1.995823895957E-01  3.751273654102E-01 -1.548912858632E-02
C16  1.995823895957E-01 -3.751273654102E-01  1.548912858632E-02
C17 -3.268705524748E-02  3.479407342134E-01 -5.632489771157E-02
C18  3.268705524748E-02 -3.479407342134E-01  5.632489771157E-02
C19  9.052008987091E-02  2.426557358881E-01 -2.461011689137E-02
C20 -9.052008987091E-02 -2.426557358881E-01  2.461011689137E-02
C21  2.608840453798E-01  2.102615602535E-01 -6.518816619679E-02
C22 -2.608840453798E-01 -2.102615602535E-01  6.518816619679E-02
C23  3.816746390105E-01  1.063571729312E-01 -3.391536098117E-02
C24 -3.816746390105E-01 -1.063571729312E-01  3.391536098117E-02
C25  3.891415580262E-01 -1.439452460343E-01  1.527880998048E-01
C26 -3.891415580262E-01  1.439452460343E-01 -1.527880998048E-01
C27  3.410178324831E-01 -2.040477186241E-01  2.184354952404E-01
C28 -3.410178324831E-01  2.040477186241E-01 -2.184354952404E-01
C29  3.285494195737E-01  4.816327364142E-01  3.079203304309E-01
C30 -3.285494195737E-01 -4.816327364142E-01 -3.079203304309E-01
C31  2.568013051594E-01  4.151187910014E-01  2.447473166437E-01
C32 -2.568013051594E-01 -4.151187910014E-01 -2.447473166437E-01
C33 -4.764163148130E-01  4.341484598464E-01  2.899108809840E-01
C34  4.764163148130E-01 -4.341484598464E-01 -2.899108809840E-01
C35  3.606321314560E-01 -2.151995527899E-01  3.922988693371E-01
C36 -3.606321314560E-01  2.151995527899E-01 -3.922988693371E-01
C37  3.108889353106E-01 -2.842073377912E-01  4.777359845774E-01
C38 -3.108889353106E-01  2.842073377912E-01 -4.777359845774E-01
C39  3.369337196798E-01 -3.513752325705E-02  3.930382721418E-01
C40 -3.369337196798E-01  3.513752325705E-02 -3.930382721418E-01
C41  1.268636077068E-02 -2.465892632386E-01  3.373147624033E-01
C42 -1.268636077068E-02  2.465892632386E-01 -3.373147624033E-01
C43 -8.193517108100E-02 -3.367679616770E-01  4.093712244466E-01
C44  8.193517108100E-02  3.367679616770E-01 -4.093712244466E-01
C45 -5.874841373504E-02 -7.018944478916E-02  3.423025341431E-01
C46  5.874841373504E-02  7.018944478916E-02 -3.423025341431E-01
H47  1.096863354510E-01  8.146839520050E-03  1.413481285804E-01
H48 -1.096863354510E-01 -8.146839520050E-03 -1.413481285804E-01
H49 -1.853413948944E-01  1.412703040530E-01  1.502873536036E-01
H50  1.853413948944E-01 -1.412703040530E-01 -1.502873536036E-01
H51 -3.899435350886E-01  3.204538005617E-01  9.089281140595E-02
H52  3.899435350886E-01 -3.204538005617E-01 -9.089281140595E-02
H53 -2.915553483329E-01  4.559902984608E-01 -3.974177621250E-02
H54  2.915553483329E-01 -4.559902984608E-01  3.974177621250E-02
H55  1.030972560099E-02  4.073202489655E-01 -1.132381094975E-01
H56 -1.030972560099E-02 -4.073202489655E-01  1.132381094975E-01
H57  3.037208288563E-01  2.657711431957E-01 -1.231750787637E-01
H58 -3.037208288563E-01 -2.657711431957E-01  1.231750787637E-01
H59  2.738209198544E-01  4.310311819835E-01  3.668269952429E-01
H60 -2.738209198544E-01 -4.310311819835E-01 -3.668269952429E-01
H61  2.985314344301E-01  4.705627545594E-01  1.858828287480E-01
H62 -2.985314344301E-01 -4.705627545594E-01 -1.858828287480E-01
H63  1.172598581571E-01  4.342119201804E-01  2.604002578788E-01
H64 -1.172598581571E-01 -4.342119201804E-01 -2.604002578788E-01
H65  3.005376370030E-01  2.884246399902E-01  2.382166128340E-01
H66 -3.005376370030E-01 -2.884246399902E-01 -2.382166128340E-01
H67 -4.403324617925E-01  3.062423966436E-01  2.864886443458E-01
H68  4.403324617925E-01 -3.062423966436E-01 -2.864886443458E-01
H69 -4.229756983590E-01  4.729622441553E-01  3.362143922482E-01
H70  4.229756983590E-01 -4.729622441553E-01 -3.362143922482E-01
H71 -4.141191880415E-01  4.832087659724E-01  2.322090373259E-01
H72  4.141191880415E-01 -4.832087659724E-01 -2.322090373259E-01
H73  4.974354269541E-01 -2.571770378365E-01  3.676451903902E-01
H74 -4.974354269541E-01  2.571770378365E-01 -3.676451903902E-01
H75  3.852148373134E-01 -2.469897095995E-01 -4.840019565658E-01
H76 -3.852148373134E-01  2.469897095995E-01  4.840019565658E-01
H77  3.324427931554E-01 -4.125368012661E-01  4.784852410855E-01
H78 -3.324427931554E-01  4.125368012661E-01 -4.784852410855E-01
H79  1.761774882321E-01 -2.442972580580E-01 -4.936122389430E-01
H80 -1.761774882321E-01  2.442972580580E-01  4.936122389430E-01
H81  2.045263664396E-01  1.661953805188E-02  4.197331147628E-01
H82 -2.045263664396E-01 -1.661953805188E-02 -4.197331147628E-01
H83  3.727797917324E-01  1.396989104408E-02  3.323064063106E-01
H84 -3.727797917324E-01 -1.396989104408E-02 -3.323064063106E-01
H85  4.157929832839E-01  3.542266555306E-03  4.286349661529E-01
H86 -4.157929832839E-01 -3.542266555306E-03 -4.286349661529E-01
H87 -1.043536700681E-02 -2.890602008179E-01  2.826134533821E-01
H88  1.043536700681E-02  2.890602008179E-01 -2.826134533821E-01
H89 -3.773275092330E-02 -4.633839372657E-01  4.054624122088E-01
H90  3.773275092330E-02  4.633839372657E-01 -4.054624122088E-01
H91 -2.193316096985E-01 -3.166249971442E-01  4.130671691138E-01
H92  2.193316096985E-01  3.166249971442E-01 -4.130671691138E-01
H93 -6.606181613053E-02 -2.984506055197E-01  4.662305270159E-01
H94  6.606181613053E-02  2.984506055197E-01 -4.662305270159E-01
H95  1.075066966876E-02 -3.601847152854E-03  2.928642677303E-01
H96 -1.075066966876E-02  3.601847152854E-03 -2.928642677303E-01
H97 -5.229793930385E-02 -2.145404866099E-02  3.985791712219E-01
H98  5.229793930385E-02  2.145404866099E-02 -3.985791712219E-01
H99 -1.933944016475E-01 -4.881546800314E-02  3.404081010351E-01
H100  1.933944016475E-01  4.881546800314E-02 -3.404081010351E-01


#===END

data_OPT_STEP_32

_symmetry_space_group_name_H-M 'P 1'
_cell_length_a      8.21748040
_cell_length_b      8.65403547
_cell_length_c     17.16531857
_cell_angle_alpha   86.779681
_cell_angle_beta   75.443832
_cell_angle_gamma   79.926430

loop_
_atom_site_label
_atom_site_fract_x
_atom_site_fract_y
_atom_site_fract_z
SI1  2.573973250321E-01 -2.955709168694E-01  3.171762232490E-01
SI2 -2.573973250321E-01  2.955709168694E-01 -3.171762232490E-01
C3  4.445298580953E-01 -7.285219781275E-02  7.651023544581E-02
C4 -4.445298580953E-01  7.285219781275E-02 -7.651023544581E-02
C5  3.257269290124E-01  3.253676182124E-02  4.364297269654E-02
C6 -3.257269290124E-01 -3.253676182124E-02 -4.364297269654E-02
C7  1.523588341974E-01  6.609593367002E-02  8.416706417084E-02
C8 -1.523588341974E-01 -6.609593367002E-02 -8.416706417084E-02
C9  3.457009763858E-02  1.671946408589E-01  5.249635322164E-02
C10 -3.457009763858E-02 -1.671946408589E-01 -5.249635322164E-02
C11 -1.424279697525E-01  1.986367772323E-01  9.298658634001E-02
C12  1.424279697525E-01 -1.986367772323E-01 -9.298658634001E-02
C13 -2.552552501320E-01  2.978182316529E-01  6.003184535955E-02
C14  2.552552501320E-01 -2.978182316529E-01 -6.003184535955E-02
C15 -1.990084838140E-01  3.743089818463E-01 -1.543074655648E-02
C16  1.990084838140E-01 -3.743089818463E-01  1.543074655648E-02
C17 -3.216930151304E-02  3.475860587253E-01 -5.618263019486E-02
C18  3.216930151304E-02 -3.475860587253E-01  5.618263019486E-02
C19  9.093798552772E-02  2.424611998803E-01 -2.448526762495E-02
C20 -9.093798552772E-02 -2.424611998803E-01  2.448526762495E-02
C21  2.612667398028E-01  2.105336582822E-01 -6.500003027725E-02
C22 -2.612667398028E-01 -2.105336582822E-01  6.500003027725E-02
C23  3.819140927904E-01  1.066173183590E-01 -3.379307413554E-02
C24 -3.819140927904E-01 -1.066173183590E-01  3.379307413554E-02
C25  3.890845640880E-01 -1.444878697280E-01  1.526054180880E-01
C26 -3.890845640880E-01  1.444878697280E-01 -1.526054180880E-01
C27  3.409648624521E-01 -2.049790335084E-01  2.181409111474E-01
C28 -3.409648624521E-01  2.049790335084E-01 -2.181409111474E-01
C29  3.275647977490E-01  4.809570257648E-01  3.076974337891E-01
C30 -3.275647977490E-01 -4.809570257648E-01 -3.076974337891E-01
C31  2.560832843246E-01  4.147520125402E-01  2.443234038445E-01
C32 -2.560832843246E-01 -4.147520125402E-01 -2.443234038445E-01
C33 -4.777507063869E-01  4.326583503387E-01  2.898412999146E-01
C34  4.777507063869E-01 -4.326583503387E-01 -2.898412999146E-01
C35  3.608967957504E-01 -2.158734715698E-01  3.920232277248E-01
C36 -3.608967957504E-01  2.158734715698E-01 -3.920232277248E-01
C37  3.107357277349E-01 -2.841267358491E-01  4.776203439845E-01
C38 -3.107357277349E-01  2.841267358491E-01 -4.776203439845E-01
C39  3.381938289786E-01 -3.575911500219E-02  3.925662752806E-01
C40 -3.381938289786E-01  3.575911500219E-02 -3.925662752806E-01
C41  1.291678078787E-02 -2.460714010967E-01  3.373206990563E-01
C42 -1.291678078787E-02  2.460714010967E-01 -3.373206990563E-01
C43 -8.188895927871E-02 -3.364265857431E-01  4.092427127677E-01
C44  8.188895927871E-02  3.364265857431E-01 -4.092427127677E-01
C45 -5.782311575221E-02 -6.939260514360E-02  3.427833719547E-01
C46  5.782311575221E-02  6.939260514360E-02 -3.427833719547E-01
H47  1.099247206695E-01  7.455449341024E-03  1.412435854827E-01
H48 -1.099247206695E-01 -7.455449341024E-03 -1.412435854827E-01
H49 -1.849161973162E-01  1.401272942153E-01  1.501674353082E-01
H50  1.849161973162E-01 -1.401272942153E-01 -1.501674353082E-01
H51 -3.893506838678E-01  3.190283960393E-01  9.075364316793E-02
H52  3.893506838678E-01 -3.190283960393E-01 -9.075364316793E-02
H53 -2.908872800179E-01  4.552317181753E-01 -3.961543014158E-02
H54  2.908872800179E-01 -4.552317181753E-01  3.961543014158E-02
H55  1.095253312918E-02  4.074613271682E-01 -1.129666813863E-01
H56 -1.095253312918E-02 -4.074613271682E-01  1.129666813863E-01
H57  3.040851957814E-01  2.661418384437E-01 -1.229334287240E-01
H58 -3.040851957814E-01 -2.661418384437E-01  1.229334287240E-01
H59  2.723594013370E-01  4.306366527384E-01  3.666091775321E-01
H60 -2.723594013370E-01 -4.306366527384E-01 -3.666091775321E-01
H61  2.984793359920E-01  4.698592178909E-01  1.854247270701E-01
H62 -2.984793359920E-01 -4.698592178909E-01 -1.854247270701E-01
H63  1.167083023708E-01  4.345737401667E-01  2.598172350272E-01
H64 -1.167083023708E-01 -4.345737401667E-01 -2.598172350272E-01
H65  2.992050845060E-01  2.879029475815E-01  2.378242606644E-01
H66 -2.992050845060E-01 -2.879029475815E-01 -2.378242606644E-01
H67 -4.421661691270E-01  3.046712328425E-01  2.863593795957E-01
H68  4.421661691270E-01 -3.046712328425E-01 -2.863593795957E-01
H69 -4.245449443613E-01  4.711882048521E-01  3.363008973022E-01
H70  4.245449443613E-01 -4.711882048521E-01 -3.363008973022E-01
H71 -4.149917498084E-01  4.814607491448E-01  2.321627708042E-01
H72  4.149917498084E-01 -4.814607491448E-01 -2.321627708042E-01
H73  4.974038793562E-01 -2.586489522164E-01  3.673035922226E-01
H74 -4.974038793562E-01  2.586489522164E-01 -3.673035922226E-01
H75  3.850006786803E-01 -2.469279544514E-01 -4.841220907727E-01
H76 -3.850006786803E-01  2.469279544514E-01  4.841220907727E-01
H77  3.317770951224E-01 -4.124970648953E-01  4.785155256571E-01
H78 -3.317770951224E-01  4.124970648953E-01 -4.785155256571E-01
H79  1.762436840146E-01 -2.435343211551E-01 -4.937423701546E-01
H80 -1.762436840146E-01  2.435343211551E-01  4.937423701546E-01
H81  2.061666283735E-01  1.682446625837E-02  4.193921357505E-01
H82 -2.061666283735E-01 -1.682446625837E-02 -4.193921357505E-01
H83  3.740913423565E-01  1.280563202919E-02  3.317033097279E-01
H84 -3.740913423565E-01 -1.280563202919E-02 -3.317033097279E-01
H85  4.174258822046E-01  2.712999977057E-03  4.279868089510E-01
H86 -4.174258822046E-01 -2.712999977057E-03 -4.279868089510E-01
H87 -1.036668907311E-02 -2.879093451595E-01  2.824360562815E-01
H88  1.036668907311E-02  2.879093451595E-01 -2.824360562815E-01
H89 -3.823696040428E-02 -4.631556691744E-01  4.049601997007E-01
H90  3.823696040428E-02  4.631556691744E-01 -4.049601997007E-01
H91 -2.191334746340E-01 -3.155693178636E-01  4.130530680008E-01
H92  2.191334746340E-01  3.155693178636E-01 -4.130530680008E-01
H93 -6.574731646261E-02 -2.988303026207E-01  4.662631424497E-01
H94  6.574731646261E-02  2.988303026207E-01 -4.662631424497E-01
H95  1.185915883278E-02 -2.677212207743E-03  2.934792802257E-01
H96 -1.185915883278E-02  2.677212207743E-03 -2.934792802257E-01
H97 -5.120604169561E-02 -2.127130505836E-02  3.992706383883E-01
H98  5.120604169561E-02  2.127130505836E-02 -3.992706383883E-01
H99 -1.922724239212E-01 -4.729382102169E-02  3.409249862018E-01
H100  1.922724239212E-01  4.729382102168E-02 -3.409249862018E-01


#===END

data_OPT_STEP_33

_symmetry_space_group_name_H-M 'P 1'
_cell_length_a      8.23050558
_cell_length_b      8.65241119
_cell_length_c     17.14754205
_cell_angle_alpha   86.865639
_cell_angle_beta   75.442515
_cell_angle_gamma   79.920027

loop_
_atom_site_label
_atom_site_fract_x
_atom_site_fract_y
_atom_site_fract_z
SI1  2.574910901344E-01 -2.964884618652E-01  3.169687279812E-01
SI2 -2.574910901344E-01  2.964884618652E-01 -3.169687279812E-01
C3  4.445742179080E-01 -7.335746613718E-02  7.638617786043E-02
C4 -4.445742179080E-01  7.335746613718E-02 -7.638617786043E-02
C5  3.259052562542E-01  3.215937023225E-02  4.361720294741E-02
C6 -3.259052562542E-01 -3.215937023225E-02 -4.361720294741E-02
C7  1.527364226107E-01  6.541095294917E-02  8.412371225413E-02
C8 -1.527364226107E-01 -6.541095294917E-02 -8.412371225413E-02
C9  3.507424656899E-02  1.666239578022E-01  5.252592542165E-02
C10 -3.507424656899E-02 -1.666239578022E-01 -5.252592542165E-02
C11 -1.417079666043E-01  1.977386441456E-01  9.297047599574E-02
C12  1.417079666043E-01 -1.977386441456E-01 -9.297047599574E-02
C13 -2.544379660392E-01  2.969115877539E-01  6.004298558029E-02
C14  2.544379660392E-01 -2.969115877539E-01 -6.004298558029E-02
C15 -1.983100271237E-01  3.737584657234E-01 -1.532510871830E-02
C16  1.983100271237E-01 -3.737584657234E-01  1.532510871830E-02
C17 -3.169558538713E-02  3.473491023764E-01 -5.602210216298E-02
C18  3.169558538713E-02 -3.473491023764E-01  5.602210216298E-02
C19  9.133337337212E-02  2.422688298762E-01 -2.436130823983E-02
C20 -9.133337337212E-02 -2.422688298762E-01  2.436130823983E-02
C21  2.614935221693E-01  2.107207612328E-01 -6.483505367347E-02
C22 -2.614935221693E-01 -2.107207612328E-01  6.483505367347E-02
C23  3.820402278334E-01  1.067411607037E-01 -3.370018076564E-02
C24 -3.820402278334E-01 -1.067411607037E-01  3.370018076564E-02
C25  3.891814555210E-01 -1.454211877316E-01  1.523651483493E-01
C26 -3.891814555210E-01  1.454211877316E-01 -1.523651483493E-01
C27  3.411164937301E-01 -2.063990211021E-01  2.177781009731E-01
C28 -3.411164937301E-01  2.063990211021E-01 -2.177781009731E-01
C29  3.266623286148E-01  4.798653933065E-01  3.076020882344E-01
C30 -3.266623286148E-01 -4.798653933065E-01 -3.076020882344E-01
C31  2.554140799595E-01  4.138614148408E-01  2.440259441687E-01
C32 -2.554140799595E-01 -4.138614148408E-01 -2.440259441687E-01
C33 -4.790207381764E-01  4.307937490708E-01  2.899846219545E-01
C34  4.790207381764E-01 -4.307937490708E-01 -2.899846219545E-01
C35  3.614352647567E-01 -2.168398007933E-01  3.917002280313E-01
C36 -3.614352647567E-01  2.168398007933E-01 -3.917002280313E-01
C37  3.107828716848E-01 -2.842011443273E-01  4.775178039557E-01
C38 -3.107828716848E-01  2.842011443273E-01 -4.775178039557E-01
C39  3.398146089940E-01 -3.671352024728E-02  3.919066198772E-01
C40 -3.398146089940E-01  3.671352024728E-02 -3.919066198772E-01
C41  1.339066710902E-02 -2.460381947198E-01  3.372473693621E-01
C42 -1.339066710902E-02  2.460381947198E-01 -3.372473693621E-01
C43 -8.164339671404E-02 -3.359906233103E-01  4.092301614928E-01
C44  8.164339671404E-02  3.359906233103E-01 -4.092301614928E-01
C45 -5.647819784183E-02 -6.915858005494E-02  3.428102471912E-01
C46  5.647819784183E-02  6.915858005494E-02 -3.428102471912E-01
H47  1.104476733084E-01  6.632588516844E-03  1.411438216014E-01
H48 -1.104476733084E-01 -6.632588516844E-03 -1.411438216014E-01
H49 -1.841370871269E-01  1.388426699900E-01  1.500487833032E-01
H50  1.841370871269E-01 -1.388426699900E-01 -1.500487833032E-01
H51 -3.884306582358E-01  3.176851779944E-01  9.064673550596E-02
H52  3.884306582358E-01 -3.176851779944E-01 -9.064673550596E-02
H53 -2.902220014403E-01  4.545028045928E-01 -3.948957810460E-02
H54  2.902220014403E-01 -4.545028045928E-01  3.948957810460E-02
H55  1.127985933022E-02  4.073350606628E-01 -1.127518389874E-01
H56 -1.127985933022E-02 -4.073350606628E-01  1.127518389874E-01
H57  3.043176606606E-01  2.668512911596E-01 -1.226525899851E-01
H58 -3.043176606606E-01 -2.668512911596E-01  1.226525899851E-01
H59  2.709271885457E-01  4.299036755652E-01  3.665432248540E-01
H60 -2.709271885457E-01 -4.299036755652E-01 -3.665432248540E-01
H61  2.985958446776E-01  4.685024915912E-01  1.850519402803E-01
H62 -2.985958446776E-01 -4.685024915912E-01 -1.850519402803E-01
H63  1.162028443239E-01  4.344744700151E-01  2.592930253818E-01
H64 -1.162028443239E-01 -4.344744700151E-01 -2.592930253818E-01
H65  2.977750396085E-01  2.868398365370E-01  2.376644483135E-01
H66 -2.977750396085E-01 -2.868398365370E-01 -2.376644483135E-01
H67 -4.440039264445E-01  3.027397728909E-01  2.864892446122E-01
H68  4.440039264445E-01 -3.027397728909E-01 -2.864892446122E-01
H69 -4.260512287185E-01  4.690572252202E-01  3.366276302495E-01
H70  4.260512287185E-01 -4.690572252202E-01 -3.366276302495E-01
H71 -4.157423747779E-01  4.793361263655E-01  2.323266233829E-01
H72  4.157423747779E-01 -4.793361263655E-01 -2.323266233829E-01
H73  4.976178222911E-01 -2.604277665409E-01  3.669631626060E-01
H74 -4.976178222911E-01  2.604277665409E-01 -3.669631626060E-01
H75  3.848950107375E-01 -2.468677127550E-01 -4.842030337183E-01
H76 -3.848950107375E-01  2.468677127550E-01  4.842030337183E-01
H77  3.313475243554E-01 -4.125816969348E-01  4.786573960995E-01
H78 -3.313475243554E-01  4.125816969348E-01 -4.786573960995E-01
H79  1.765012639584E-01 -2.430146017768E-01 -4.939352003438E-01
H80 -1.765012639584E-01  2.430146017768E-01  4.939352003438E-01
H81  2.081824185427E-01  1.667890167662E-02  4.187902811824E-01
H82 -2.081824185427E-01 -1.667890167662E-02 -4.187902811824E-01
H83  3.758358217058E-01  1.121607779527E-02  3.308720342670E-01
H84 -3.758358217058E-01 -1.121607779527E-02 -3.308720342670E-01
H85  4.193982745236E-01  1.634575602005E-03  4.271559907181E-01
H86 -4.193982745236E-01 -1.634575602005E-03 -4.271559907181E-01
H87 -1.015421336439E-02 -2.876891863399E-01  2.823059808056E-01
H88  1.015421336439E-02  2.876891863399E-01 -2.823059808056E-01
H89 -3.884557695717E-02 -4.628483128069E-01  4.047960045683E-01
H90  3.884557695717E-02  4.628483128069E-01 -4.047960045683E-01
H91 -2.187659328536E-01 -3.142542572187E-01  4.131947753065E-01
H92  2.187659328536E-01  3.142542572187E-01 -4.131947753065E-01
H93 -6.494429646238E-02 -2.987786035236E-01  4.662964312340E-01
H94  6.494429646238E-02  2.987786035236E-01 -4.662964312340E-01
H95  1.345814194538E-02 -2.698954499718E-03  2.935049909221E-01
H96 -1.345814194538E-02  2.698954499718E-03 -2.935049909221E-01
H97 -4.963087694424E-02 -2.120259811994E-02  3.993750306599E-01
H98  4.963087694424E-02  2.120259811994E-02 -3.993750306599E-01
H99 -1.907258778629E-01 -4.646033086277E-02  3.409600579340E-01
H100  1.907258778629E-01  4.646033086277E-02 -3.409600579340E-01


#===END

data_OPT_STEP_34

_symmetry_space_group_name_H-M 'P 1'
_cell_length_a      8.24426973
_cell_length_b      8.64921364
_cell_length_c     17.12827801
_cell_angle_alpha   86.980257
_cell_angle_beta   75.451819
_cell_angle_gamma   79.872886

loop_
_atom_site_label
_atom_site_fract_x
_atom_site_fract_y
_atom_site_fract_z
SI1  2.578664687367E-01 -2.972367223603E-01  3.167382662342E-01
SI2 -2.578664687367E-01  2.972367223603E-01 -3.167382662342E-01
C3  4.446676421783E-01 -7.376999069019E-02  7.626593789325E-02
C4 -4.446676421783E-01  7.376999069019E-02 -7.626593789325E-02
C5  3.260940828058E-01  3.195844364691E-02  4.361600018157E-02
C6 -3.260940828058E-01 -3.195844364691E-02 -4.361600018157E-02
C7  1.530685722379E-01  6.489395607436E-02  8.409047313743E-02
C8 -1.530685722379E-01 -6.489395607436E-02 -8.409047313743E-02
C9  3.549949395063E-02  1.662316284169E-01  5.256651767535E-02
C10 -3.549949395063E-02 -1.662316284169E-01 -5.256651767535E-02
C11 -1.411609258603E-01  1.969012900178E-01  9.293064682556E-02
C12  1.411609258603E-01 -1.969012900178E-01 -9.293064682556E-02
C13 -2.538387719993E-01  2.960266717295E-01  6.002254350142E-02
C14  2.538387719993E-01 -2.960266717295E-01 -6.002254350142E-02
C15 -1.978390914556E-01  3.731383307868E-01 -1.524941003209E-02
C16  1.978390914556E-01 -3.731383307868E-01  1.524941003209E-02
C17 -3.131749317925E-02  3.472530649699E-01 -5.584155634622E-02
C18  3.131749317925E-02 -3.472530649699E-01  5.584155634622E-02
C19  9.167297138202E-02  2.422698826432E-01 -2.420728873881E-02
C20 -9.167297138202E-02 -2.422698826432E-01  2.420728873881E-02
C21  2.616592987320E-01  2.110050460973E-01 -6.464189672964E-02
C22 -2.616592987320E-01 -2.110050460973E-01  6.464189672964E-02
C23  3.821286944854E-01  1.069257663532E-01 -3.358818955765E-02
C24 -3.821286944854E-01 -1.069257663532E-01  3.358818955765E-02
C25  3.893845972303E-01 -1.462158440259E-01  1.521196753885E-01
C26 -3.893845972303E-01  1.462158440259E-01 -1.521196753885E-01
C27  3.413967140260E-01 -2.076291787652E-01  2.174053356825E-01
C28 -3.413967140260E-01  2.076291787652E-01 -2.174053356825E-01
C29  3.262548796530E-01  4.788936914397E-01  3.074271084370E-01
C30 -3.262548796530E-01 -4.788936914397E-01 -3.074271084370E-01
C31  2.547065691579E-01  4.128631644794E-01  2.438608962249E-01
C32 -2.547065691579E-01 -4.128631644794E-01 -2.438608962249E-01
C33 -4.797931874984E-01  4.290902075043E-01  2.897195865497E-01
C34  4.797931874984E-01 -4.290902075043E-01 -2.897195865497E-01
C35  3.621892687847E-01 -2.176375774093E-01  3.914091709300E-01
C36 -3.621892687847E-01  2.176375774093E-01 -3.914091709300E-01
C37  3.116204416500E-01 -2.844752825626E-01  4.773415095657E-01
C38 -3.116204416500E-01  2.844752825626E-01 -4.773415095657E-01
C39  3.410558787936E-01 -3.755684857845E-02  3.915310807102E-01
C40 -3.410558787936E-01  3.755684857845E-02 -3.915310807102E-01
C41  1.414183437792E-02 -2.458530108333E-01  3.371276934061E-01
C42 -1.414183437792E-02  2.458530108333E-01 -3.371276934061E-01
C43 -8.111468070668E-02 -3.351505864023E-01  4.092006311584E-01
C44  8.111468070668E-02  3.351505864023E-01 -4.092006311584E-01
C45 -5.502339456688E-02 -6.877309507311E-02  3.426758907044E-01
C46  5.502339456688E-02  6.877309507311E-02 -3.426758907044E-01
H47  1.108267107420E-01  5.740286597672E-03  1.409986857468E-01
H48 -1.108267107420E-01 -5.740286597672E-03 -1.409986857468E-01
H49 -1.834594265734E-01  1.378686814236E-01  1.499421024063E-01
H50  1.834594265734E-01 -1.378686814236E-01 -1.499421024063E-01
H51 -3.877079029772E-01  3.164977327746E-01  9.053000308430E-02
H52  3.877079029772E-01 -3.164977327746E-01 -9.053000308430E-02
H53 -2.897737007565E-01  4.537417568430E-01 -3.939750014048E-02
H54  2.897737007565E-01 -4.537417568430E-01  3.939750014048E-02
H55  1.149564949170E-02  4.072860930788E-01 -1.125163768952E-01
H56 -1.149564949170E-02 -4.072860930788E-01  1.125163768952E-01
H57  3.043752639164E-01  2.673279694695E-01 -1.223892690835E-01
H58 -3.043752639164E-01 -2.673279694695E-01  1.223892690835E-01
H59  2.705480567189E-01  4.293898396939E-01  3.664649053382E-01
H60 -2.705480567189E-01 -4.293898396939E-01 -3.664649053382E-01
H61  2.978473421651E-01  4.670793440105E-01  1.847962235393E-01
H62 -2.978473421651E-01 -4.670793440105E-01 -1.847962235393E-01
H63  1.157341572758E-01  4.340072022052E-01  2.592109313010E-01
H64 -1.157341572758E-01 -4.340072022052E-01 -2.592109313010E-01
H65  2.966170558666E-01  2.856963829318E-01  2.375122030758E-01
H66 -2.966170558666E-01 -2.856963829318E-01 -2.375122030758E-01
H67 -4.452135399709E-01  3.009281863482E-01  2.861548355685E-01
H68  4.452135399709E-01 -3.009281863482E-01 -2.861548355685E-01
H69 -4.266844478674E-01  4.671824059531E-01  3.364179183098E-01
H70  4.266844478674E-01 -4.671824059531E-01 -3.364179183098E-01
H71 -4.165094204256E-01  4.773298024518E-01  2.320121559537E-01
H72  4.165094204256E-01 -4.773298024518E-01 -2.320121559537E-01
H73  4.980496254752E-01 -2.617520259499E-01  3.666313775346E-01
H74 -4.980496254752E-01  2.617520259499E-01 -3.666313775346E-01
H75  3.856776800390E-01 -2.470192457875E-01 -4.843777820770E-01
H76 -3.856776800390E-01  2.470192457875E-01  4.843777820770E-01
H77  3.320632752526E-01 -4.128694876163E-01  4.785320582065E-01
H78 -3.320632752526E-01  4.128694876163E-01 -4.785320582065E-01
H79  1.776077671510E-01 -2.429849270303E-01 -4.940759737963E-01
H80 -1.776077671510E-01  2.429849270303E-01  4.940759737963E-01
H81  2.098446940853E-01  1.623629060535E-02  4.185946024509E-01
H82 -2.098446940853E-01 -1.623629060535E-02 -4.185946024509E-01
H83  3.767361649023E-01  1.000537401970E-02  3.304028258297E-01
H84 -3.767361649023E-01 -1.000537401970E-02 -3.304028258297E-01
H85  4.209461236703E-01  7.095974487841E-04  4.266240315653E-01
H86 -4.209461236703E-01 -7.095974487841E-04 -4.266240315653E-01
H87 -9.577856055167E-03 -2.875664569055E-01  2.821634928469E-01
H88  9.577856055167E-03  2.875664569055E-01 -2.821634928469E-01
H89 -3.902912932510E-02 -4.621688738432E-01  4.047078517899E-01
H90  3.902912932510E-02  4.621688738432E-01 -4.047078517899E-01
H91 -2.180708971219E-01 -3.126119294966E-01  4.132655971126E-01
H92  2.180708971219E-01  3.126119294966E-01 -4.132655971126E-01
H93 -6.404833893996E-02 -2.980406841653E-01  4.662968954272E-01
H94  6.404833893996E-02  2.980406841653E-01 -4.662968954272E-01
H95  1.500570800392E-02 -2.803453465567E-03  2.932807419543E-01
H96 -1.500570800392E-02  2.803453465567E-03 -2.932807419543E-01
H97 -4.789365726908E-02 -2.066948320451E-02  3.992541273962E-01
H98  4.789365726908E-02  2.066948320451E-02 -3.992541273962E-01
H99 -1.890921905866E-01 -4.556737862564E-02  3.408927545584E-01
H100  1.890921905866E-01  4.556737862564E-02 -3.408927545584E-01


#===END

data_OPT_STEP_35

_symmetry_space_group_name_H-M 'P 1'
_cell_length_a      8.25955970
_cell_length_b      8.65294535
_cell_length_c     17.10726323
_cell_angle_alpha   87.088746
_cell_angle_beta   75.414267
_cell_angle_gamma   79.798132

loop_
_atom_site_label
_atom_site_fract_x
_atom_site_fract_y
_atom_site_fract_z
SI1  2.579277205547E-01 -2.977011483828E-01  3.166314703807E-01
SI2 -2.579277205547E-01  2.977011483828E-01 -3.166314703807E-01
C3  4.446328786316E-01 -7.406072459739E-02  7.618479837598E-02
C4 -4.446328786316E-01  7.406072459739E-02 -7.618479837598E-02
C5  3.261811244176E-01  3.174371192365E-02  4.362346998707E-02
C6 -3.261811244176E-01 -3.174371192365E-02 -4.362346998707E-02
C7  1.532649322063E-01  6.449828903492E-02  8.409511057282E-02
C8 -1.532649322063E-01 -6.449828903492E-02 -8.409511057282E-02
C9  3.585427861231E-02  1.658889438147E-01  5.262801112574E-02
C10 -3.585427861231E-02 -1.658889438147E-01 -5.262801112574E-02
C11 -1.406601553131E-01  1.963993738828E-01  9.297161622591E-02
C12  1.406601553131E-01 -1.963993738828E-01 -9.297161622591E-02
C13 -2.532256518997E-01  2.954020947590E-01  6.006725268377E-02
C14  2.532256518997E-01 -2.954020947590E-01 -6.006725268377E-02
C15 -1.972042718738E-01  3.727112818894E-01 -1.513402158454E-02
C16  1.972042718738E-01 -3.727112818894E-01  1.513402158454E-02
C17 -3.084059728012E-02  3.469237649541E-01 -5.570536122099E-02
C18  3.084059728012E-02 -3.469237649541E-01  5.570536122099E-02
C19  9.203431407922E-02  2.420705153910E-01 -2.408694995126E-02
C20 -9.203431407922E-02 -2.420705153910E-01  2.408694995126E-02
C21  2.618780813391E-01  2.109514786522E-01 -6.451274619226E-02
C22 -2.618780813391E-01 -2.109514786522E-01  6.451274619226E-02
C23  3.822529347628E-01  1.069795357071E-01 -3.350183124893E-02
C24 -3.822529347628E-01 -1.069795357071E-01  3.350183124893E-02
C25  3.893385995042E-01 -1.468424494333E-01  1.519441796780E-01
C26 -3.893385995042E-01  1.468424494333E-01 -1.519441796780E-01
C27  3.413547323152E-01 -2.085952997415E-01  2.171347337333E-01
C28 -3.413547323152E-01  2.085952997415E-01 -2.171347337333E-01
C29  3.256625927511E-01  4.783684022475E-01  3.072969753557E-01
C30 -3.256625927511E-01 -4.783684022475E-01 -3.072969753557E-01
C31  2.540795058342E-01  4.124596875266E-01  2.436631939359E-01
C32 -2.540795058342E-01 -4.124596875266E-01 -2.436631939359E-01
C33 -4.807330017995E-01  4.278536611691E-01  2.895330973375E-01
C34  4.807330017995E-01 -4.278536611691E-01 -2.895330973375E-01
C35  3.626151047152E-01 -2.182739034967E-01  3.912344863539E-01
C36 -3.626151047152E-01  2.182739034967E-01 -3.912344863539E-01
C37  3.118585524240E-01 -2.843192773869E-01  4.773485212396E-01
C38 -3.118585524240E-01  2.843192773869E-01 -4.773485212396E-01
C39  3.423186507679E-01 -3.827001713959E-02  3.911925829358E-01
C40 -3.423186507679E-01  3.827001713959E-02 -3.911925829358E-01
C41  1.456088510128E-02 -2.453969833811E-01  3.372276778665E-01
C42 -1.456088510128E-02  2.453969833811E-01 -3.372276778665E-01
C43 -8.087872580565E-02 -3.341945321528E-01  4.093601065916E-01
C44  8.087872580565E-02  3.341945321528E-01 -4.093601065916E-01
C45 -5.400944242794E-02 -6.821693067819E-02  3.429282807631E-01
C46  5.400944242794E-02  6.821693067819E-02 -3.429282807631E-01
H47  1.110435990712E-01  5.287413454509E-03  1.409604265143E-01
H48 -1.110435990712E-01 -5.287413454509E-03 -1.409604265143E-01
H49 -1.831021890038E-01  1.368235024181E-01  1.498587588401E-01
H50  1.831021890038E-01 -1.368235024181E-01 -1.498587588401E-01
H51 -3.870786927307E-01  3.154230709757E-01  9.047108433768E-02
H52  3.870786927307E-01 -3.154230709757E-01 -9.047108433768E-02
H53 -2.890897361610E-01  4.531397905907E-01 -3.928307734507E-02
H54  2.890897361610E-01 -4.531397905907E-01  3.928307734507E-02
H55  1.200535743622E-02  4.071806433522E-01 -1.123084788763E-01
H56 -1.200535743622E-02 -4.071806433522E-01  1.123084788763E-01
H57  3.045914532740E-01  2.673736140720E-01 -1.222177405418E-01
H58 -3.045914532740E-01 -2.673736140720E-01  1.222177405418E-01
H59  2.698511973857E-01  4.292841850083E-01  3.664196533672E-01
H60 -2.698511973857E-01 -4.292841850083E-01 -3.664196533672E-01
H61  2.972889952088E-01  4.663012878928E-01  1.845186841768E-01
H62 -2.972889952088E-01 -4.663012878928E-01 -1.845186841768E-01
H63  1.153317549438E-01  4.340846106248E-01  2.590736608068E-01
H64 -1.153317549438E-01 -4.340846106248E-01 -2.590736608068E-01
H65  2.956650170476E-01  2.852607810263E-01  2.372790831501E-01
H66 -2.956650170476E-01 -2.852607810263E-01 -2.372790831501E-01
H67 -4.465165557270E-01  2.996759854072E-01  2.858582741887E-01
H68  4.465165557270E-01 -2.996759854072E-01 -2.858582741887E-01
H69 -4.276792056962E-01  4.656802317812E-01  3.363410226351E-01
H70  4.276792056962E-01 -4.656802317812E-01 -3.363410226351E-01
H71 -4.173079959029E-01  4.758089696807E-01  2.317899040029E-01
H72  4.173079959029E-01 -4.758089696807E-01 -2.317899040029E-01
H73  4.981796300003E-01 -2.631719789674E-01  3.663991558062E-01
H74 -4.981796300003E-01  2.631719789674E-01 -3.663991558062E-01
H75  3.860303798866E-01 -2.469336919470E-01 -4.844212969839E-01
H76 -3.860303798866E-01  2.469336919470E-01  4.844212969839E-01
H77  3.318239924770E-01 -4.127122252781E-01  4.786408774384E-01
H78 -3.318239924770E-01  4.127122252781E-01 -4.786408774384E-01
H79  1.781033636868E-01 -2.421148058243E-01 -4.939818713015E-01
H80 -1.781033636868E-01  2.421148058243E-01  4.939818713015E-01
H81  2.115283271614E-01  1.626373816775E-02  4.184490383575E-01
H82 -2.115283271614E-01 -1.626373816775E-02 -4.184490383575E-01
H83  3.778738294372E-01  8.700187327768E-03  3.299185641320E-01
H84 -3.778738294372E-01 -8.700187327768E-03 -3.299185641320E-01
H85  4.225888003766E-01 -2.097390656611E-04  4.261034994829E-01
H86 -4.225888003766E-01  2.097390656611E-04 -4.261034994829E-01
H87 -9.299639762578E-03 -2.869505154473E-01  2.821881504641E-01
H88  9.299639762578E-03  2.869505154473E-01 -2.821881504641E-01
H89 -3.930676159916E-02 -4.612618148287E-01  4.047380273807E-01
H90  3.930676159916E-02  4.612618148287E-01 -4.047380273807E-01
H91 -2.176397354867E-01 -3.109769624466E-01  4.135092057520E-01
H92  2.176397354867E-01  3.109769624466E-01 -4.135092057520E-01
H93 -6.364919859977E-02 -2.973015483547E-01  4.665405941108E-01
H94  6.364919859977E-02  2.973015483547E-01 -4.665405941108E-01
H95  1.597004989537E-02 -2.678180070214E-03  2.934212440531E-01
H96 -1.597004989537E-02  2.678180070214E-03 -2.934212440531E-01
H97 -4.646843868625E-02 -2.016200160077E-02  3.995574473908E-01
H98  4.646843868625E-02  2.016200160077E-02 -3.995574473908E-01
H99 -1.879618466895E-01 -4.444675955384E-02  3.413339216325E-01
H100  1.879618466895E-01  4.444675955384E-02 -3.413339216325E-01


#===END

data_OPT_STEP_36

_symmetry_space_group_name_H-M 'P 1'
_cell_length_a      8.27373798
_cell_length_b      8.65610118
_cell_length_c     17.08544785
_cell_angle_alpha   87.107987
_cell_angle_beta   75.414580
_cell_angle_gamma   79.739806

loop_
_atom_site_label
_atom_site_fract_x
_atom_site_fract_y
_atom_site_fract_z
SI1  2.583703150413E-01 -2.986454506765E-01  3.166269635807E-01
SI2 -2.583703150413E-01  2.986454506765E-01 -3.166269635807E-01
C3  4.447545585203E-01 -7.458733409796E-02  7.609888624841E-02
C4 -4.447545585203E-01  7.458733409796E-02 -7.609888624841E-02
C5  3.263963638686E-01  3.146594261749E-02  4.363311613201E-02
C6 -3.263963638686E-01 -3.146594261749E-02 -4.363311613201E-02
C7  1.536896100021E-01  6.390435076637E-02  8.409787501726E-02
C8 -1.536896100021E-01 -6.390435076637E-02 -8.409787501726E-02
C9  3.634457359512E-02  1.653741810824E-01  5.267511855327E-02
C10 -3.634457359512E-02 -1.653741810824E-01 -5.267511855327E-02
C11 -1.399489934242E-01  1.954588947947E-01  9.297646420626E-02
C12  1.399489934242E-01 -1.954588947947E-01 -9.297646420626E-02
C13 -2.524849551954E-01  2.944535300989E-01  6.007891356563E-02
C14  2.524849551954E-01 -2.944535300989E-01 -6.007891356563E-02
C15 -1.966604550390E-01  3.721683840996E-01 -1.505930685697E-02
C16  1.966604550390E-01 -3.721683840996E-01  1.505930685697E-02
C17 -3.046897264041E-02  3.468853615877E-01 -5.556187313794E-02
C18  3.046897264041E-02 -3.468853615877E-01  5.556187313794E-02
C19  9.237601972780E-02  2.420498485614E-01 -2.396195674941E-02
C20 -9.237601972780E-02 -2.420498485614E-01  2.396195674941E-02
C21  2.620245475694E-01  2.112960019700E-01 -6.436040287963E-02
C22 -2.620245475694E-01 -2.112960019700E-01  6.436040287963E-02
C23  3.823274484553E-01  1.071918641849E-01 -3.341512791059E-02
C24 -3.823274484553E-01 -1.071918641849E-01  3.341512791059E-02
C25  3.895623660050E-01 -1.478641966563E-01  1.517797792081E-01
C26 -3.895623660050E-01  1.478641966563E-01 -1.517797792081E-01
C27  3.416105191979E-01 -2.100534703538E-01  2.168996806130E-01
C28 -3.416105191979E-01  2.100534703538E-01 -2.168996806130E-01
C29  3.253065128942E-01  4.773694666321E-01  3.074987058778E-01
C30 -3.253065128942E-01 -4.773694666321E-01 -3.074987058778E-01
C31  2.540195929699E-01  4.116560312960E-01  2.436951162321E-01
C32 -2.540195929699E-01 -4.116560312960E-01 -2.436951162321E-01
C33 -4.814692000057E-01  4.261649137271E-01  2.899794326531E-01
C34  4.814692000057E-01 -4.261649137271E-01 -2.899794326531E-01
C35  3.635487639171E-01 -2.193610473489E-01  3.910683275830E-01
C36 -3.635487639171E-01  2.193610473489E-01 -3.910683275830E-01
C37  3.125422536604E-01 -2.845715335812E-01  4.774341741455E-01
C38 -3.125422536604E-01  2.845715335812E-01 -4.774341741455E-01
C39  3.442546158003E-01 -3.943743648665E-02  3.906565774682E-01
C40 -3.442546158003E-01  3.943743648665E-02 -3.906565774682E-01
C41  1.540162799168E-02 -2.454044036073E-01  3.373790753548E-01
C42 -1.540162799168E-02  2.454044036073E-01 -3.373790753548E-01
C43 -8.019908664508E-02 -3.335708921319E-01  4.096785944295E-01
C44  8.019908664508E-02  3.335708921319E-01 -4.096785944295E-01
C45 -5.237786463669E-02 -6.811659231805E-02  3.430276265830E-01
C46  5.237786463669E-02  6.811659231805E-02 -3.430276265830E-01
H47  1.115558730795E-01  4.282001359870E-03  1.408870538688E-01
H48 -1.115558730795E-01 -4.282001359870E-03 -1.408870538688E-01
H49 -1.821886096504E-01  1.356911283315E-01  1.498315043062E-01
H50  1.821886096504E-01 -1.356911283315E-01 -1.498315043062E-01
H51 -3.861321407430E-01  3.141829229190E-01  9.043381571045E-02
H52  3.861321407430E-01 -3.141829229190E-01 -9.043381571045E-02
H53 -2.885458794521E-01  4.525652924236E-01 -3.920076447817E-02
H54  2.885458794521E-01 -4.525652924236E-01  3.920076447817E-02
H55  1.222130449621E-02  4.074702353772E-01 -1.121054607542E-01
H56 -1.222130449621E-02 -4.074702353772E-01  1.121054607542E-01
H57  3.046234569248E-01  2.680572362268E-01 -1.220097998015E-01
H58 -3.046234569248E-01 -2.680572362268E-01  1.220097998015E-01
H59  2.690709872955E-01  4.286466269969E-01  3.666892539506E-01
H60 -2.690709872955E-01 -4.286466269969E-01 -3.666892539506E-01
H61  2.977265596062E-01  4.651140135564E-01  1.844474623837E-01
H62 -2.977265596062E-01 -4.651140135564E-01 -1.844474623837E-01
H63  1.154804859022E-01  4.338307643575E-01  2.589372938192E-01
H64 -1.154804859022E-01 -4.338307643575E-01 -2.589372938192E-01
H65  2.951474706532E-01  2.844192336228E-01  2.374477596762E-01
H66 -2.951474706532E-01 -2.844192336228E-01 -2.374477596762E-01
H67 -4.476860977664E-01  2.979789687441E-01  2.863097406348E-01
H68  4.476860977664E-01 -2.979789687441E-01 -2.863097406348E-01
H69 -4.287345238550E-01  4.636768244206E-01  3.369861873442E-01
H70  4.287345238550E-01 -4.636768244206E-01 -3.369861873442E-01
H71 -4.175859930416E-01  4.739008613615E-01  2.322361802587E-01
H72  4.175859930416E-01 -4.739008613615E-01 -2.322361802587E-01
H73  4.987853584576E-01 -2.650812719583E-01  3.662250981969E-01
H74 -4.987853584576E-01  2.650812719583E-01 -3.662250981969E-01
H75  3.866654633040E-01 -2.470689544501E-01 -4.843692869263E-01
H76 -3.866654633040E-01  2.470689544501E-01  4.843692869263E-01
H77  3.321792720426E-01 -4.129162907796E-01  4.789752998064E-01
H78 -3.321792720426E-01  4.129162907796E-01 -4.789752998064E-01
H79  1.790141983657E-01 -2.418704887879E-01 -4.939241544022E-01
H80 -1.790141983657E-01  2.418704887879E-01  4.939241544022E-01
H81  2.138840290763E-01  1.587795886632E-02  4.179691448214E-01
H82 -2.138840290763E-01 -1.587795886632E-02 -4.179691448214E-01
H83  3.798654581440E-01  6.874583189465E-03  3.291808108254E-01
H84 -3.798654581440E-01 -6.874583189465E-03 -3.291808108254E-01
H85  4.248333723788E-01 -1.529775766594E-03  4.254069784510E-01
H86 -4.248333723788E-01  1.529775766594E-03 -4.254069784510E-01
H87 -8.761792429253E-03 -2.868518282863E-01  2.823375445986E-01
H88  8.761792429253E-03  2.868518282863E-01 -2.823375445986E-01
H89 -3.937489214164E-02 -4.607127378104E-01  4.050530165704E-01
H90  3.937489214164E-02  4.607127378104E-01 -4.050530165704E-01
H91 -2.167811371587E-01 -3.095209234648E-01  4.139336347785E-01
H92  2.167811371587E-01  3.095209234648E-01 -4.139336347785E-01
H93 -6.252391549735E-02 -2.969108898328E-01  4.668716296005E-01
H94  6.252391549735E-02  2.969108898328E-01 -4.668716296005E-01
H95  1.749580320745E-02 -3.103898302748E-03  2.933044756341E-01
H96 -1.749580320745E-02  3.103898302748E-03 -2.933044756341E-01
H97 -4.413723139998E-02 -2.004302201076E-02  3.996090071009E-01
H98  4.413723139998E-02  2.004302201076E-02 -3.996090071009E-01
H99 -1.862723423746E-01 -4.374631950697E-02  3.416705623552E-01
H100  1.862723423746E-01  4.374631950697E-02 -3.416705623552E-01


#===END

data_OPT_STEP_37

_symmetry_space_group_name_H-M 'P 1'
_cell_length_a      8.29852652
_cell_length_b      8.65191758
_cell_length_c     17.05521691
_cell_angle_alpha   87.336027
_cell_angle_beta   75.462938
_cell_angle_gamma   79.635237

loop_
_atom_site_label
_atom_site_fract_x
_atom_site_fract_y
_atom_site_fract_z
SI1  2.593330318040E-01 -2.996745980691E-01  3.160537399308E-01
SI2 -2.593330318040E-01  2.996745980691E-01 -3.160537399308E-01
C3  4.450002561807E-01 -7.508961113636E-02  7.588085097894E-02
C4 -4.450002561807E-01  7.508961113636E-02 -7.588085097894E-02
C5  3.266866740328E-01  3.107876620523E-02  4.357978501123E-02
C6 -3.266866740328E-01 -3.107876620523E-02 -4.357978501123E-02
C7  1.542983076071E-01  6.318947395616E-02  8.397495856729E-02
C8 -1.542983076071E-01 -6.318947395616E-02 -8.397495856729E-02
C9  3.715084162384E-02  1.650320027083E-01  5.272024246459E-02
C10 -3.715084162384E-02 -1.650320027083E-01 -5.272024246459E-02
C11 -1.387171446685E-01  1.948441220200E-01  9.293798361833E-02
C12  1.387171446685E-01 -1.948441220200E-01 -9.293798361833E-02
C13 -2.512567573831E-01  2.936206037704E-01  6.006925735566E-02
C14  2.512567573831E-01 -2.936206037704E-01 -6.006925735566E-02
C15 -1.958783720479E-01  3.713750191766E-01 -1.493488912052E-02
C16  1.958783720479E-01 -3.713750191766E-01  1.493488912052E-02
C17 -2.998387233820E-02  3.466769708433E-01 -5.527584854095E-02
C18  2.998387233820E-02 -3.466769708433E-01  5.527584854095E-02
C19  9.283657457736E-02  2.419668250155E-01 -2.374019620626E-02
C20 -9.283657457736E-02 -2.419668250155E-01  2.374019620626E-02
C21  2.621105071675E-01  2.113789388355E-01 -6.407752389895E-02
C22 -2.621105071675E-01 -2.113789388355E-01  6.407752389895E-02
C23  3.823702719465E-01  1.072870291700E-01 -3.325357301630E-02
C24 -3.823702719465E-01 -1.072870291700E-01  3.325357301630E-02
C25  3.899880730423E-01 -1.490369012625E-01  1.513058932956E-01
C26 -3.899880730423E-01  1.490369012625E-01 -1.513058932956E-01
C27  3.420339743161E-01 -2.118237773879E-01  2.161866330594E-01
C28 -3.420339743161E-01  2.118237773879E-01 -2.161866330594E-01
C29  3.247460594298E-01  4.758872159719E-01  3.067731457222E-01
C30 -3.247460594298E-01 -4.758872159719E-01 -3.067731457222E-01
C31  2.531659617951E-01  4.105618098148E-01  2.427839598571E-01
C32 -2.531659617951E-01 -4.105618098148E-01 -2.427839598571E-01
C33 -4.826841561016E-01  4.231555745529E-01  2.893016739020E-01
C34  4.826841561016E-01 -4.231555745529E-01 -2.893016739020E-01
C35  3.655637941238E-01 -2.209659446721E-01  3.903919191363E-01
C36 -3.655637941238E-01  2.209659446721E-01 -3.903919191363E-01
C37  3.146672233784E-01 -2.853853619057E-01  4.768698814430E-01
C38 -3.146672233784E-01  2.853853619057E-01 -4.768698814430E-01
C39  3.476598096577E-01 -4.102659293036E-02  3.899610490606E-01
C40 -3.476598096577E-01  4.102659293036E-02 -3.899610490606E-01
C41  1.704259853067E-02 -2.445280535720E-01  3.371952330631E-01
C42 -1.704259853067E-02  2.445280535720E-01 -3.371952330631E-01
C43 -7.863958032157E-02 -3.329452079541E-01  4.092078567667E-01
C44  7.863958032157E-02  3.329452079541E-01 -4.092078567667E-01
C45 -4.949340384298E-02 -6.664015377608E-02  3.437683822639E-01
C46  4.949340384298E-02  6.664015377608E-02 -3.437683822639E-01
H47  1.124329093952E-01  3.461063671758E-03  1.406296726351E-01
H48 -1.124329093952E-01 -3.461063671758E-03 -1.406296726351E-01
H49 -1.805828458737E-01  1.351412770846E-01  1.497032804376E-01
H50  1.805828458737E-01 -1.351412770846E-01 -1.497032804376E-01
H51 -3.845553500647E-01  3.130073206074E-01  9.033180431866E-02
H52  3.845553500647E-01 -3.130073206074E-01 -9.033180431866E-02
H53 -2.878031278516E-01  4.515279935152E-01 -3.907451225867E-02
H54  2.878031278516E-01 -4.515279935152E-01  3.907451225867E-02
H55  1.230797465447E-02  4.072161468750E-01 -1.117202684970E-01
H56 -1.230797465447E-02 -4.072161468750E-01  1.117202684970E-01
H57  3.045296184197E-01  2.684546741127E-01 -1.215723910598E-01
H58 -3.045296184197E-01 -2.684546741127E-01  1.215723910598E-01
H59  2.682698430282E-01  4.277894957425E-01  3.660115087594E-01
H60 -2.682698430282E-01 -4.277894957425E-01 -3.660115087594E-01
H61  2.975446814494E-01  4.631460576523E-01  1.834233341613E-01
H62 -2.975446814494E-01 -4.631460576523E-01 -1.834233341613E-01
H63  1.149791392071E-01  4.342336248496E-01  2.578952711266E-01
H64 -1.149791392071E-01 -4.342336248496E-01 -2.578952711266E-01
H65  2.930509035341E-01  2.829429738885E-01  2.366300133549E-01
H66 -2.930509035341E-01 -2.829429738885E-01 -2.366300133549E-01
H67 -4.497523273663E-01  2.947677464912E-01  2.854381301337E-01
H68  4.497523273663E-01 -2.947677464912E-01 -2.854381301337E-01
H69 -4.299140922906E-01  4.602129582769E-01  3.365307231739E-01
H70  4.299140922906E-01 -4.602129582769E-01 -3.365307231739E-01
H71 -4.184945167005E-01  4.703513768324E-01  2.315828198452E-01
H72  4.184945167005E-01 -4.703513768324E-01 -2.315828198452E-01
H73 -4.998259615705E-01 -2.679280088646E-01  3.654396648147E-01
H74  4.998259615705E-01  2.679280088646E-01 -3.654396648147E-01
H75  3.887337057332E-01 -2.477907697430E-01 -4.849047437287E-01
H76 -3.887337057332E-01  2.477907697430E-01  4.849047437287E-01
H77  3.341060898592E-01 -4.137515434037E-01  4.784233039663E-01
H78 -3.341060898592E-01  4.137515434037E-01 -4.784233039663E-01
H79  1.815882827687E-01 -2.421496488888E-01 -4.944436724828E-01
H80 -1.815882827687E-01  2.421496488888E-01  4.944436724828E-01
H81  2.180066658010E-01  1.548086534312E-02  4.174174570324E-01
H82 -2.180066658010E-01 -1.548086534312E-02 -4.174174570324E-01
H83  3.831988758041E-01  4.680037866712E-03  3.284035799075E-01
H84 -3.831988758041E-01 -4.680037866712E-03 -3.284035799075E-01
H85  4.286707134397E-01 -3.638583959227E-03  4.246362926284E-01
H86 -4.286707134397E-01  3.638583959227E-03 -4.246362926284E-01
H87 -7.714375544320E-03 -2.847997129041E-01  2.818130982285E-01
H88  7.714375544320E-03  2.847997129041E-01 -2.818130982285E-01
H89 -3.882753815243E-02 -4.603770822186E-01  4.039039014357E-01
H90  3.882753815243E-02  4.603770822186E-01 -4.039039014357E-01
H91 -2.148750692394E-01 -3.074860777312E-01  4.135870084691E-01
H92  2.148750692394E-01  3.074860777312E-01 -4.135870084691E-01
H93 -6.035700175721E-02 -2.975653919699E-01  4.667193213441E-01
H94  6.035700175721E-02  2.975653919699E-01 -4.667193213441E-01
H95  2.050655606556E-02 -1.401761782696E-03  2.943044474677E-01
H96 -2.050655606556E-02  1.401761782696E-03 -2.943044474677E-01
H97 -4.068021778475E-02 -1.972211857338E-02  4.007516435442E-01
H98  4.068021778475E-02  1.972211857338E-02 -4.007516435442E-01
H99 -1.830649467866E-01 -4.084857863693E-02  3.424924390957E-01
H100  1.830649467866E-01  4.084857863693E-02 -3.424924390957E-01


#===END

data_OPT_STEP_38

_symmetry_space_group_name_H-M 'P 1'
_cell_length_a      8.31737870
_cell_length_b      8.66494917
_cell_length_c     17.01325168
_cell_angle_alpha   87.235206
_cell_angle_beta   75.501717
_cell_angle_gamma   79.471077

loop_
_atom_site_label
_atom_site_fract_x
_atom_site_fract_y
_atom_site_fract_z
SI1  2.610515996419E-01 -3.004407447004E-01  3.165219769425E-01
SI2 -2.610515996419E-01  3.004407447004E-01 -3.165219769425E-01
C3  4.454472852727E-01 -7.593490486383E-02  7.579830787781E-02
C4 -4.454472852727E-01  7.593490486383E-02 -7.579830787781E-02
C5  3.270648575222E-01  3.068396709564E-02  4.361441557826E-02
C6 -3.270648575222E-01 -3.068396709564E-02 -4.361441557826E-02
C7  1.549757732795E-01  6.224485148275E-02  8.398832776261E-02
C8 -1.549757732795E-01 -6.224485148275E-02 -8.398832776261E-02
C9  3.766324445049E-02  1.641649120902E-01  5.274006863579E-02
C10 -3.766324445049E-02 -1.641649120902E-01 -5.274006863579E-02
C11 -1.378994598872E-01  1.932718504269E-01  9.288336509024E-02
C12  1.378994598872E-01 -1.932718504269E-01 -9.288336509024E-02
C13 -2.505428386167E-01  2.922048307519E-01  6.000489360601E-02
C14  2.505428386167E-01 -2.922048307519E-01 -6.000489360601E-02
C15 -1.954920075521E-01  3.711338897563E-01 -1.485942634274E-02
C16  1.954920075521E-01 -3.711338897563E-01  1.485942634274E-02
C17 -2.992275903286E-02  3.471358539594E-01 -5.510708682754E-02
C18  2.992275903286E-02 -3.471358539594E-01  5.510708682754E-02
C19  9.301341202579E-02  2.422551108121E-01 -2.359230034289E-02
C20 -9.301341202579E-02 -2.422551108121E-01  2.359230034289E-02
C21  2.620622120020E-01  2.123680610650E-01 -6.386754234376E-02
C22 -2.620622120020E-01 -2.123680610650E-01  6.386754234376E-02
C23  3.823673946531E-01  1.078946088792E-01 -3.312028623162E-02
C24 -3.823673946531E-01 -1.078946088792E-01  3.312028623162E-02
C25  3.909042457051E-01 -1.504486019020E-01  1.512069639369E-01
C26 -3.909042457051E-01  1.504486019020E-01 -1.512069639369E-01
C27  3.429822566244E-01 -2.136559959460E-01  2.160847968868E-01
C28 -3.429822566244E-01  2.136559959460E-01 -2.160847968868E-01
C29  3.254819475138E-01  4.752195550669E-01  3.078585670092E-01
C30 -3.254819475138E-01 -4.752195550669E-01 -3.078585670092E-01
C31  2.533342427113E-01  4.099539545991E-01  2.440527947062E-01
C32 -2.533342427113E-01 -4.099539545991E-01 -2.440527947062E-01
C33 -4.824101428958E-01  4.215031650224E-01  2.902962163314E-01
C34  4.824101428958E-01 -4.215031650224E-01 -2.902962163314E-01
C35  3.681319360213E-01 -2.220763220695E-01  3.904907524938E-01
C36 -3.681319360213E-01  2.220763220695E-01 -3.904907524938E-01
C37  3.169597785237E-01 -2.851707926833E-01  4.774660140490E-01
C38 -3.169597785237E-01  2.851707926833E-01 -4.774660140490E-01
C39  3.516861588912E-01 -4.253548061712E-02  3.893034732646E-01
C40 -3.516861588912E-01  4.253548061712E-02 -3.893034732646E-01
C41  1.928137733727E-02 -2.439698063095E-01  3.378636008377E-01
C42 -1.928137733727E-02  2.439698063095E-01 -3.378636008377E-01
C43 -7.673992764165E-02 -3.306435749614E-01  4.104514167714E-01
C44  7.673992764165E-02  3.306435749614E-01 -4.104514167714E-01
C45 -4.618528450154E-02 -6.621308350609E-02  3.436882993107E-01
C46  4.618528450154E-02  6.621308350609E-02 -3.436882993107E-01
H47  1.133391818028E-01  1.639502569297E-03  1.405298068317E-01
H48 -1.133391818028E-01 -1.639502569297E-03 -1.405298068317E-01
H49 -1.795152882504E-01  1.326518337365E-01  1.495318810546E-01
H50  1.795152882504E-01 -1.326518337365E-01 -1.495318810546E-01
H51 -3.835777439212E-01  3.109346689167E-01  9.018174753277E-02
H52  3.835777439212E-01 -3.109346689167E-01 -9.018174753277E-02
H53 -2.874600384201E-01  4.514824019068E-01 -3.899837606308E-02
H54  2.874600384201E-01 -4.514824019068E-01  3.899837606308E-02
H55  1.210269272986E-02  4.086769675145E-01 -1.114148352041E-01
H56 -1.210269272986E-02 -4.086769675145E-01  1.114148352041E-01
H57  3.042725740867E-01  2.703054567262E-01 -1.212658659264E-01
H58 -3.042725740867E-01 -2.703054567262E-01  1.212658659264E-01
H59  2.691774156787E-01  4.279304527111E-01  3.674155256364E-01
H60 -2.691774156787E-01 -4.279304527111E-01 -3.674155256364E-01
H61  2.979665979417E-01  4.613974771282E-01  1.843034005161E-01
H62 -2.979665979417E-01 -4.613974771282E-01 -1.843034005161E-01
H63  1.154260525549E-01  4.348294207404E-01  2.591884939286E-01
H64 -1.154260525549E-01 -4.348294207404E-01 -2.591884939286E-01
H65  2.922370832051E-01  2.822676279093E-01  2.384084818356E-01
H66 -2.922370832051E-01 -2.822676279093E-01 -2.384084818356E-01
H67 -4.499889722092E-01  2.932305341857E-01  2.866038238922E-01
H68  4.499889722092E-01 -2.932305341857E-01 -2.866038238922E-01
H69 -4.293822439065E-01  4.582763815901E-01  3.375359417728E-01
H70  4.293822439065E-01 -4.582763815901E-01 -3.375359417728E-01
H71 -4.183166651477E-01  4.681020756219E-01  2.323413177722E-01
H72  4.183166651477E-01 -4.681020756219E-01 -2.323413177722E-01
H73 -4.977486130177E-01 -2.703253702208E-01  3.655921676251E-01
H74  4.977486130177E-01  2.703253702208E-01 -3.655921676251E-01
H75  3.911131196232E-01 -2.475472127065E-01 -4.844237915564E-01
H76 -3.911131196232E-01  2.475472127065E-01  4.844237915564E-01
H77  3.359333869240E-01 -4.133869399614E-01  4.795252253226E-01
H78 -3.359333869240E-01  4.133869399614E-01 -4.795252253226E-01
H79  1.841803859302E-01 -2.411101558958E-01 -4.938693086545E-01
H80 -1.841803859302E-01  2.411101558958E-01  4.938693086545E-01
H81  2.226068148292E-01  1.524462068187E-02  4.166595238893E-01
H82 -2.226068148292E-01 -1.524462068187E-02 -4.166595238893E-01
H83  3.875949824365E-01  2.136214451526E-03  3.273901975260E-01
H84 -3.875949824365E-01 -2.136214451526E-03 -3.273901975260E-01
H85  4.329920753925E-01 -5.683878491334E-03  4.238615621623E-01
H86 -4.329920753925E-01  5.683878491334E-03 -4.238615621623E-01
H87 -5.875476899575E-03 -2.845599781063E-01  2.826400179225E-01
H88  5.875476899575E-03  2.845599781063E-01 -2.826400179225E-01
H89 -3.802998873505E-02 -4.580236074970E-01  4.056193982835E-01
H90  3.802998873505E-02  4.580236074970E-01 -4.056193982835E-01
H91 -2.126981029427E-01 -3.039270751400E-01  4.148878256392E-01
H92  2.126981029427E-01  3.039270751400E-01 -4.148878256392E-01
H93 -5.789034744464E-02 -2.950838124236E-01  4.678466904567E-01
H94  5.789034744464E-02  2.950838124236E-01 -4.678466904567E-01
H95  2.449297534170E-02 -1.875899339878E-03  2.940006494613E-01
H96 -2.449297534170E-02  1.875899339878E-03 -2.940006494613E-01
H97 -3.777790831277E-02 -1.906641565743E-02  4.006178658172E-01
H98  3.777790831277E-02  1.906641565743E-02 -4.006178658172E-01
H99 -1.792111499173E-01 -3.986495665711E-02  3.420976016038E-01
H100  1.792111499173E-01  3.986495665711E-02 -3.420976016038E-01


#===END

data_OPT_STEP_39

_symmetry_space_group_name_H-M 'P 1'
_cell_length_a      8.32863010
_cell_length_b      8.65016538
_cell_length_c     17.01597763
_cell_angle_alpha   87.510186
_cell_angle_beta   75.642894
_cell_angle_gamma   79.498910

loop_
_atom_site_label
_atom_site_fract_x
_atom_site_fract_y
_atom_site_fract_z
SI1  2.618007508454E-01 -3.016062008513E-01  3.153994951775E-01
SI2 -2.618007508454E-01  3.016062008513E-01 -3.153994951775E-01
C3  4.456032923162E-01 -7.643749491361E-02  7.549477436141E-02
C4 -4.456032923162E-01  7.643749491361E-02 -7.549477436141E-02
C5  3.274022017241E-01  3.054500510657E-02  4.349109923953E-02
C6 -3.274022017241E-01 -3.054500510657E-02 -4.349109923953E-02
C7  1.557561189713E-01  6.234856613655E-02  8.379426602362E-02
C8 -1.557561189713E-01 -6.234856613655E-02 -8.379426602362E-02
C9  3.834972858901E-02  1.640815196597E-01  5.263692998299E-02
C10 -3.834972858901E-02 -1.640815196597E-01 -5.263692998299E-02
C11 -1.370856513467E-01  1.928985888216E-01  9.260791401781E-02
C12  1.370856513467E-01 -1.928985888216E-01 -9.260791401781E-02
C13 -2.496669263333E-01  2.919941275991E-01  5.989656184166E-02
C14  2.496669263333E-01 -2.919941275991E-01 -5.989656184166E-02
C15 -1.949216002909E-01  3.708503225452E-01 -1.472408896075E-02
C16  1.949216002909E-01 -3.708503225452E-01  1.472408896075E-02
C17 -2.969678641645E-02  3.466538585627E-01 -5.489289951271E-02
C18  2.969678641645E-02 -3.466538585627E-01  5.489289951271E-02
C19  9.335300392424E-02  2.421393157851E-01 -2.345522039605E-02
C20 -9.335300392424E-02 -2.421393157851E-01  2.345522039605E-02
C21  2.622326733647E-01  2.126950502254E-01 -6.355934488142E-02
C22 -2.622326733647E-01 -2.126950502254E-01  6.355934488142E-02
C23  3.824295144912E-01  1.079812656621E-01 -3.297249747294E-02
C24 -3.824295144912E-01 -1.079812656621E-01  3.297249747294E-02
C25  3.912933205769E-01 -1.512484907577E-01  1.506368324051E-01
C26 -3.912933205769E-01  1.512484907577E-01 -1.506368324051E-01
C27  3.434203948735E-01 -2.144061467089E-01  2.153034171709E-01
C28 -3.434203948735E-01  2.144061467089E-01 -2.153034171709E-01
C29  3.258693222197E-01  4.735834012272E-01  3.062227320950E-01
C30 -3.258693222197E-01 -4.735834012272E-01 -3.062227320950E-01
C31  2.546718518648E-01  4.085451882213E-01  2.418367371243E-01
C32 -2.546718518648E-01 -4.085451882213E-01 -2.418367371243E-01
C33 -4.823833532571E-01  4.193910108270E-01  2.893246663117E-01
C34  4.823833532571E-01 -4.193910108270E-01 -2.893246663117E-01
C35  3.690812137742E-01 -2.233975620713E-01  3.896342399343E-01
C36 -3.690812137742E-01  2.233975620713E-01 -3.896342399343E-01
C37  3.176690017799E-01 -2.863117298829E-01  4.764561075354E-01
C38 -3.176690017799E-01  2.863117298829E-01 -4.764561075354E-01
C39  3.533271565279E-01 -4.355343887641E-02  3.887047834328E-01
C40 -3.533271565279E-01  4.355343887641E-02 -3.887047834328E-01
C41  2.036190795871E-02 -2.449037428567E-01  3.368874419047E-01
C42 -2.036190795871E-02  2.449037428567E-01 -3.368874419047E-01
C43 -7.519826088147E-02 -3.300931757076E-01  4.097435012296E-01
C44  7.519826088147E-02  3.300931757076E-01 -4.097435012296E-01
C45 -4.464290247139E-02 -6.695647143123E-02  3.423714432692E-01
C46  4.464290247139E-02  6.695647143123E-02 -3.423714432692E-01
H47  1.140756024725E-01  8.729896845055E-04  1.399823109160E-01
H48 -1.140756024725E-01 -8.729896845055E-04 -1.399823109160E-01
H49 -1.785989809643E-01  1.322112434453E-01  1.490655790232E-01
H50  1.785989809643E-01 -1.322112434453E-01 -1.490655790232E-01
H51 -3.825857411587E-01  3.104245883350E-01  9.000475047040E-02
H52  3.825857411587E-01 -3.104245883350E-01 -9.000475047040E-02
H53 -2.869046740825E-01  4.509385588881E-01 -3.881865852207E-02
H54  2.869046740825E-01 -4.509385588881E-01  3.881865852207E-02
H55  1.230993354844E-02  4.087625345133E-01 -1.109174918392E-01
H56 -1.230993354844E-02 -4.087625345133E-01  1.109174918392E-01
H57  3.040405920400E-01  2.702458470605E-01 -1.208431912948E-01
H58 -3.040405920400E-01 -2.702458470605E-01  1.208431912948E-01
H59  2.688352033738E-01  4.261376488451E-01  3.654697663695E-01
H60 -2.688352033738E-01 -4.261376488451E-01 -3.654697663695E-01
H61  2.996349721859E-01  4.604841015739E-01  1.824162753627E-01
H62 -2.996349721859E-01 -4.604841015739E-01 -1.824162753627E-01
H63  1.170142576126E-01  4.331715777156E-01  2.565195068071E-01
H64 -1.170142576126E-01 -4.331715777156E-01 -2.565195068071E-01
H65  2.938278960613E-01  2.807892734143E-01  2.358431142301E-01
H66 -2.938278960613E-01 -2.807892734143E-01 -2.358431142301E-01
H67 -4.502196767345E-01  2.908896927822E-01  2.851128138257E-01
H68  4.502196767345E-01 -2.908896927822E-01 -2.851128138257E-01
H69 -4.301449194633E-01  4.554261993851E-01  3.371204407574E-01
H70  4.301449194633E-01 -4.554261993851E-01 -3.371204407574E-01
H71 -4.175211385212E-01  4.665940215704E-01  2.318628932001E-01
H72  4.175211385212E-01 -4.665940215704E-01 -2.318628932001E-01
H73 -4.971604097131E-01 -2.720250504945E-01  3.648070392752E-01
H74  4.971604097131E-01  2.720250504945E-01 -3.648070392752E-01
H75  3.922105706046E-01 -2.492131858001E-01 -4.853672767257E-01
H76 -3.922105706046E-01  2.492131858001E-01  4.853672767257E-01
H77  3.355499636955E-01 -4.148816462387E-01  4.784127549331E-01
H78 -3.355499636955E-01  4.148816462387E-01 -4.784127549331E-01
H79  1.852775473152E-01 -2.412366798083E-01 -4.949194571449E-01
H80 -1.852775473152E-01  2.412366798083E-01  4.949194571449E-01
H81  2.245406835155E-01  1.474941931399E-02  4.158637183791E-01
H82 -2.245406835155E-01 -1.474941931399E-02 -4.158637183791E-01
H83  3.895918733825E-01  1.207541014349E-03  3.269872460962E-01
H84 -3.895918733825E-01 -1.207541014349E-03 -3.269872460962E-01
H85  4.345939598958E-01 -7.132138609768E-03  4.235262727099E-01
H86 -4.345939598958E-01  7.132138609768E-03 -4.235262727099E-01
H87 -5.368894848850E-03 -2.866858042667E-01  2.819343233980E-01
H88  5.368894848850E-03  2.866858042667E-01 -2.819343233980E-01
H89 -3.679123700304E-02 -4.576141702473E-01  4.052124282531E-01
H90  3.679123700304E-02  4.576141702473E-01 -4.052124282531E-01
H91 -2.110782802308E-01 -3.033394043165E-01  4.143450366868E-01
H92  2.110782802308E-01  3.033394043165E-01 -4.143450366868E-01
H93 -5.569537511355E-02 -2.932425707509E-01  4.668931507712E-01
H94  5.569537511355E-02  2.932425707509E-01 -4.668931507712E-01
H95  2.458199774406E-02 -4.169473148660E-03  2.920138572115E-01
H96 -2.458199774406E-02  4.169473148660E-03 -2.920138572115E-01
H97 -3.380505519210E-02 -1.812008922974E-02  3.987161867522E-01
H98  3.380505519210E-02  1.812008922974E-02 -3.987161867522E-01
H99 -1.781895016349E-01 -4.059483467865E-02  3.417746600975E-01
H100  1.781895016349E-01  4.059483467865E-02 -3.417746600975E-01


#===END

data_OPT_STEP_40

_symmetry_space_group_name_H-M 'P 1'
_cell_length_a      8.32028746
_cell_length_b      8.66288874
_cell_length_c     17.01375320
_cell_angle_alpha   87.281082
_cell_angle_beta   75.539645
_cell_angle_gamma   79.474518

loop_
_atom_site_label
_atom_site_fract_x
_atom_site_fract_y
_atom_site_fract_z
SI1  2.612239963921E-01 -3.006857888791E-01  3.163100193673E-01
SI2 -2.612239963921E-01  3.006857888791E-01 -3.163100193673E-01
C3  4.454771281040E-01 -7.615190739502E-02  7.571698325244E-02
C4 -4.454771281040E-01  7.615190739502E-02 -7.571698325244E-02
C5  3.271628508023E-01  3.060794469679E-02  4.357421612351E-02
C6 -3.271628508023E-01 -3.060794469679E-02 -4.357421612351E-02
C7  1.552227294854E-01  6.225767635862E-02  8.393403725180E-02
C8 -1.552227294854E-01 -6.225767635862E-02 -8.393403725180E-02
C9  3.785798800378E-02  1.640989703499E-01  5.269694869821E-02
C10 -3.785798800378E-02 -1.640989703499E-01 -5.269694869821E-02
C11 -1.377276058622E-01  1.930489478178E-01  9.278193290893E-02
C12  1.377276058622E-01 -1.930489478178E-01 -9.278193290893E-02
C13 -2.503202304776E-01  2.921620777346E-01  5.997408751350E-02
C14  2.503202304776E-01 -2.921620777346E-01 -5.997408751350E-02
C15 -1.953253844094E-01  3.711357084917E-01 -1.481872283599E-02
C16  1.953253844094E-01 -3.711357084917E-01  1.481872283599E-02
C17 -2.985539756002E-02  3.470178881676E-01 -5.506449790504E-02
C18  2.985539756002E-02 -3.470178881676E-01  5.506449790504E-02
C19  9.311597574169E-02  2.422271690416E-01 -2.357220633832E-02
C20 -9.311597574169E-02 -2.422271690416E-01  2.357220633832E-02
C21  2.621332835901E-01  2.125408601288E-01 -6.379633249069E-02
C22 -2.621332835901E-01 -2.125408601288E-01  6.379633249069E-02
C23  3.823750233816E-01  1.079022162999E-01 -3.309683900717E-02
C24 -3.823750233816E-01 -1.079022162999E-01  3.309683900717E-02
C25  3.910274576056E-01 -1.506839579773E-01  1.510887798707E-01
C26 -3.910274576056E-01  1.506839579773E-01 -1.510887798707E-01
C27  3.430851725658E-01 -2.137148928827E-01  2.159557040853E-01
C28 -3.430851725658E-01  2.137148928827E-01 -2.159557040853E-01
C29  3.255528820549E-01  4.748961529866E-01  3.075313785537E-01
C30 -3.255528820549E-01 -4.748961529866E-01 -3.075313785537E-01
C31  2.537245671345E-01  4.097679128890E-01  2.435572896734E-01
C32 -2.537245671345E-01 -4.097679128890E-01 -2.435572896734E-01
C33 -4.824206121934E-01  4.210404751386E-01  2.901956782187E-01
C34  4.824206121934E-01 -4.210404751386E-01 -2.901956782187E-01
C35  3.683444906420E-01 -2.224247418935E-01  3.903531359704E-01
C36 -3.683444906420E-01  2.224247418935E-01 -3.903531359704E-01
C37  3.170467135828E-01 -2.854353912913E-01  4.773206933004E-01
C38 -3.170467135828E-01  2.854353912913E-01 -4.773206933004E-01
C39  3.521543855939E-01 -4.284412722923E-02  3.891810147374E-01
C40 -3.521543855939E-01  4.284412722923E-02 -3.891810147374E-01
C41  1.953624480460E-02 -2.441697932082E-01  3.377215099685E-01
C42 -1.953624480460E-02  2.441697932082E-01 -3.377215099685E-01
C43 -7.628876132173E-02 -3.303113745299E-01  4.104498149939E-01
C44  7.628876132173E-02  3.303113745299E-01 -4.104498149939E-01
C45 -4.574862392905E-02 -6.639869363089E-02  3.434019648082E-01
C46  4.574862392905E-02  6.639869363089E-02 -3.434019648082E-01
H47  1.135326590063E-01  1.246098394280E-03  1.403578612654E-01
H48 -1.135326590063E-01 -1.246098394280E-03 -1.403578612654E-01
H49 -1.793686455382E-01  1.323319517684E-01  1.493750786577E-01
H50  1.793686455382E-01 -1.323319517684E-01 -1.493750786577E-01
H51 -3.833634257264E-01  3.107519730556E-01  9.014843156793E-02
H52  3.833634257264E-01 -3.107519730556E-01 -9.014843156793E-02
H53 -2.872751684799E-01  4.514134412553E-01 -3.895314358602E-02
H54  2.872751684799E-01 -4.514134412553E-01  3.895314358602E-02
H55  1.221940720928E-02  4.088483533481E-01 -1.112810147005E-01
H56 -1.221940720928E-02 -4.088483533481E-01  1.112810147005E-01
H57  3.041885064109E-01  2.703049105431E-01 -1.211849104482E-01
H58 -3.041885064109E-01 -2.703049105431E-01  1.211849104482E-01
H59  2.689766570837E-01  4.275303157655E-01  3.670041206038E-01
H60 -2.689766570837E-01 -4.275303157655E-01 -3.670041206038E-01
H61  2.983129015235E-01  4.615342675983E-01  1.839238300972E-01
H62 -2.983129015235E-01 -4.615342675983E-01 -1.839238300972E-01
H63  1.158923890372E-01  4.343547764978E-01  2.585787883409E-01
H64 -1.158923890372E-01 -4.343547764978E-01 -2.585787883409E-01
H65  2.928965274472E-01  2.821659337433E-01  2.377703080513E-01
H66 -2.928965274472E-01 -2.821659337433E-01 -2.377703080513E-01
H67 -4.500843994577E-01  2.927311337086E-01  2.863146024240E-01
H68  4.500843994577E-01 -2.927311337086E-01 -2.863146024240E-01
H69 -4.296666787100E-01  4.574139363905E-01  3.376348075610E-01
H70  4.296666787100E-01 -4.574139363905E-01 -3.376348075610E-01
H71 -4.180350275855E-01  4.679704571240E-01  2.324140041041E-01
H72  4.180350275855E-01 -4.679704571240E-01 -2.324140041041E-01
H73 -4.976420379979E-01 -2.707694259062E-01  3.654921498723E-01
H74  4.976420379979E-01  2.707694259062E-01 -3.654921498723E-01
H75  3.915098364072E-01 -2.481583373646E-01 -4.846033659436E-01
H76 -3.915098364072E-01  2.481583373646E-01  4.846033659436E-01
H77  3.354278505197E-01 -4.137633762734E-01  4.793985227380E-01
H78 -3.354278505197E-01  4.137633762734E-01 -4.793985227380E-01
H79  1.844175915414E-01 -2.408588123038E-01 -4.939933780934E-01
H80 -1.844175915414E-01  2.408588123038E-01  4.939933780934E-01
H81  2.231494049920E-01  1.508751321421E-02  4.164497410550E-01
H82 -2.231494049920E-01 -1.508751321421E-02 -4.164497410550E-01
H83  3.882319393884E-01  1.863791286544E-03  3.273108817136E-01
H84 -3.882319393884E-01 -1.863791286544E-03 -3.273108817136E-01
H85  4.334643739928E-01 -6.202665158417E-03  4.238256695685E-01
H86 -4.334643739928E-01  6.202665158417E-03 -4.238256695685E-01
H87 -5.882955711495E-03 -2.851437725486E-01  2.826210512138E-01
H88  5.882955711495E-03  2.851437725486E-01 -2.826210512138E-01
H89 -3.759833179314E-02 -4.576757998442E-01  4.057773673309E-01
H90  3.759833179314E-02  4.576757998442E-01 -4.057773673309E-01
H91 -2.122447020240E-01 -3.036919017431E-01  4.149363974373E-01
H92  2.122447020240E-01  3.036919017431E-01 -4.149363974373E-01
H93 -5.723226242308E-02 -2.942522850364E-01  4.677391161687E-01
H94  5.723226242308E-02  2.942522850364E-01 -4.677391161687E-01
H95  2.400408271261E-02 -2.825782732503E-03  2.932710781660E-01
H96 -2.400408271261E-02  2.825782732503E-03 -2.932710781660E-01
H97 -3.575904589057E-02 -1.854034019416E-02  3.999919652919E-01
H98  3.575904589057E-02  1.854034019416E-02 -3.999919652919E-01
H99 -1.792202550123E-01 -3.998673680783E-02  3.424878768973E-01
H100  1.792202550123E-01  3.998673680783E-02 -3.424878768973E-01


#===END

data_OPT_STEP_41

_symmetry_space_group_name_H-M 'P 1'
_cell_length_a      8.32267614
_cell_length_b      8.67011293
_cell_length_c     17.00523174
_cell_angle_alpha   87.244463
_cell_angle_beta   75.529168
_cell_angle_gamma   79.420654

loop_
_atom_site_label
_atom_site_fract_x
_atom_site_fract_y
_atom_site_fract_z
SI1  2.613382545024E-01 -3.006294941925E-01  3.165156634384E-01
SI2 -2.613382545024E-01  3.006294941925E-01 -3.165156634384E-01
C3  4.455939072245E-01 -7.591037183317E-02  7.581097035104E-02
C4 -4.455939072245E-01  7.591037183317E-02 -7.581097035104E-02
C5  3.271901005511E-01  3.065586873135E-02  4.360128984001E-02
C6 -3.271901005511E-01 -3.065586873135E-02 -4.360128984001E-02
C7  1.551769591196E-01  6.208612433192E-02  8.394028660217E-02
C8 -1.551769591196E-01 -6.208612433192E-02 -8.394028660217E-02
C9  3.783270853685E-02  1.639624947376E-01  5.268557492352E-02
C10 -3.783270853685E-02 -1.639624947376E-01 -5.268557492352E-02
C11 -1.377970456572E-01  1.928175558866E-01  9.277172096903E-02
C12  1.377970456572E-01 -1.928175558866E-01 -9.277172096903E-02
C13 -2.504130485192E-01  2.919153428753E-01  5.994948048666E-02
C14  2.504130485192E-01 -2.919153428753E-01 -5.994948048666E-02
C15 -1.953485988485E-01  3.710820343652E-01 -1.485107517856E-02
C16  1.953485988485E-01 -3.710820343652E-01  1.485107517856E-02
C17 -2.975150157675E-02  3.472130537561E-01 -5.508205081491E-02
C18  2.975150157675E-02 -3.472130537561E-01  5.508205081491E-02
C19  9.310652613612E-02  2.421359523201E-01 -2.361685503061E-02
C20 -9.310652613612E-02 -2.421359523201E-01  2.361685503061E-02
C21  2.620289409365E-01  2.122864369626E-01 -6.389216746329E-02
C22 -2.620289409365E-01 -2.122864369626E-01  6.389216746329E-02
C23  3.823344345253E-01  1.078345463477E-01 -3.313411877615E-02
C24 -3.823344345253E-01 -1.078345463477E-01  3.313411877615E-02
C25  3.911477408429E-01 -1.505141727948E-01  1.512254226876E-01
C26 -3.911477408429E-01  1.505141727948E-01 -1.512254226876E-01
C27  3.431376062029E-01 -2.134638181292E-01  2.161504264114E-01
C28 -3.431376062029E-01  2.134638181292E-01 -2.161504264114E-01
C29  3.258889390198E-01  4.751817611489E-01  3.076398241704E-01
C30 -3.258889390198E-01 -4.751817611489E-01 -3.076398241704E-01
C31  2.542917637220E-01  4.103106975318E-01  2.435779721234E-01
C32 -2.542917637220E-01 -4.103106975318E-01 -2.435779721234E-01
C33 -4.821065853026E-01  4.214063416824E-01  2.903141420661E-01
C34  4.821065853026E-01 -4.214063416824E-01 -2.903141420661E-01
C35  3.684661389565E-01 -2.226188180712E-01  3.905920016711E-01
C36 -3.684661389565E-01  2.226188180712E-01 -3.905920016711E-01
C37  3.172671801271E-01 -2.854834316497E-01  4.776406809702E-01
C38 -3.172671801271E-01  2.854834316497E-01 -4.776406809702E-01
C39  3.524286102769E-01 -4.313399181917E-02  3.893799085640E-01
C40 -3.524286102769E-01  4.313399181917E-02 -3.893799085640E-01
C41  1.968230087964E-02 -2.440550312310E-01  3.379846762839E-01
C42 -1.968230087964E-02  2.440550312310E-01 -3.379846762839E-01
C43 -7.602633579993E-02 -3.305490032625E-01  4.106500904555E-01
C44  7.602633579993E-02  3.305490032625E-01 -4.106500904555E-01
C45 -4.568374384327E-02 -6.633162610712E-02  3.438697259161E-01
C46  4.568374384327E-02  6.633162610712E-02 -3.438697259161E-01
H47  1.136244819503E-01  1.407874449323E-03  1.404512939833E-01
H48 -1.136244819503E-01 -1.407874449323E-03 -1.404512939833E-01
H49 -1.794825125021E-01  1.320069497652E-01  1.493809919862E-01
H50  1.794825125021E-01 -1.320069497652E-01 -1.493809919862E-01
H51 -3.833815290834E-01  3.107932688318E-01  9.020985606443E-02
H52  3.833815290834E-01 -3.107932688318E-01 -9.020985606443E-02
H53 -2.872406808224E-01  4.514367692248E-01 -3.899289862993E-02
H54  2.872406808224E-01 -4.514367692248E-01  3.899289862993E-02
H55  1.225667862338E-02  4.087673980844E-01 -1.113747246479E-01
H56 -1.225667862338E-02 -4.087673980844E-01  1.113747246479E-01
H57  3.041797214111E-01  2.704006739134E-01 -1.212525064602E-01
H58 -3.041797214111E-01 -2.704006739134E-01  1.212525064602E-01
H59  2.693350935892E-01  4.276818564252E-01  3.671144835313E-01
H60 -2.693350935892E-01 -4.276818564252E-01 -3.671144835313E-01
H61  2.984195646415E-01  4.625262670048E-01  1.840041190239E-01
H62 -2.984195646415E-01 -4.625262670048E-01 -1.840041190239E-01
H63  1.165341961028E-01  4.343859379417E-01  2.586821224296E-01
H64 -1.165341961028E-01 -4.343859379417E-01 -2.586821224296E-01
H65  2.940414023962E-01  2.829878594455E-01  2.375825455690E-01
H66 -2.940414023962E-01 -2.829878594455E-01 -2.375825455690E-01
H67 -4.496090953318E-01  2.932124416622E-01  2.863297861223E-01
H68  4.496090953318E-01 -2.932124416622E-01 -2.863297861223E-01
H69 -4.295225648729E-01  4.574891741308E-01  3.378408071021E-01
H70  4.295225648729E-01 -4.574891741308E-01 -3.378408071021E-01
H71 -4.177397739750E-01  4.685889550268E-01  2.325647349605E-01
H72  4.177397739750E-01 -4.685889550268E-01 -2.325647349605E-01
H73 -4.975540157899E-01 -2.711097822241E-01  3.656899488535E-01
H74  4.975540157899E-01  2.711097822241E-01 -3.656899488535E-01
H75  3.920515461240E-01 -2.484746672376E-01 -4.843831654286E-01
H76 -3.920515461240E-01  2.484746672376E-01  4.843831654286E-01
H77  3.353902700088E-01 -4.137381421422E-01  4.797424538470E-01
H78 -3.353902700088E-01  4.137381421422E-01 -4.797424538470E-01
H79  1.847634639711E-01 -2.405666050580E-01 -4.935585337723E-01
H80 -1.847634639711E-01  2.405666050580E-01  4.935585337723E-01
H81  2.235166090339E-01  1.497245798625E-02  4.167335915310E-01
H82 -2.235166090339E-01 -1.497245798625E-02 -4.167335915310E-01
H83  3.883748523961E-01  1.427792220968E-03  3.274365244374E-01
H84 -3.883748523961E-01 -1.427792220968E-03 -3.274365244374E-01
H85  4.339063723050E-01 -6.643379727274E-03  4.239774938242E-01
H86 -4.339063723050E-01  6.643379727274E-03 -4.239774938242E-01
H87 -5.710039785992E-03 -2.846348114298E-01  2.827958137289E-01
H88  5.710039785992E-03  2.846348114298E-01 -2.827958137289E-01
H89 -3.719423227961E-02 -4.578504330558E-01  4.058400040897E-01
H90  3.719423227961E-02  4.578504330558E-01 -4.058400040897E-01
H91 -2.119680927356E-01 -3.039523721798E-01  4.151353838075E-01
H92  2.119680927356E-01  3.039523721798E-01 -4.151353838075E-01
H93 -5.705694823434E-02 -2.948279350879E-01  4.680292186777E-01
H94  5.705694823434E-02  2.948279350879E-01 -4.680292186777E-01
H95  2.361488563806E-02 -2.738211776126E-03  2.936270197562E-01
H96 -2.361488563806E-02  2.738211776126E-03 -2.936270197562E-01
H97 -3.510743480518E-02 -1.871908490818E-02  4.004545711751E-01
H98  3.510743480518E-02  1.871908490818E-02 -4.004545711751E-01
H99 -1.793381004423E-01 -3.972380322996E-02  3.432403349903E-01
H100  1.793381004423E-01  3.972380322996E-02 -3.432403349903E-01


#===END

data_OPT_STEP_42

_symmetry_space_group_name_H-M 'P 1'
_cell_length_a      8.32249604
_cell_length_b      8.67006952
_cell_length_c     17.00327773
_cell_angle_alpha   87.246425
_cell_angle_beta   75.545826
_cell_angle_gamma   79.418255

loop_
_atom_site_label
_atom_site_fract_x
_atom_site_fract_y
_atom_site_fract_z
SI1  2.614144043820E-01 -3.007085203972E-01  3.165090314821E-01
SI2 -2.614144043820E-01  3.007085203972E-01 -3.165090314821E-01
C3  4.456252684383E-01 -7.592711808663E-02  7.581281378620E-02
C4 -4.456252684383E-01  7.592711808663E-02 -7.581281378620E-02
C5  3.271946519045E-01  3.062392808342E-02  4.359197528435E-02
C6 -3.271946519045E-01 -3.062392808342E-02 -4.359197528435E-02
C7  1.552127367316E-01  6.207947999179E-02  8.393353649886E-02
C8 -1.552127367316E-01 -6.207947999179E-02 -8.393353649886E-02
C9  3.785585909565E-02  1.639568228413E-01  5.267437082712E-02
C10 -3.785585909565E-02 -1.639568228413E-01 -5.267437082712E-02
C11 -1.377139126482E-01  1.928917371940E-01  9.277514821091E-02
C12  1.377139126482E-01 -1.928917371940E-01 -9.277514821091E-02
C13 -2.503443392259E-01  2.920395062534E-01  5.996001451246E-02
C14  2.503443392259E-01 -2.920395062534E-01 -5.996001451246E-02
C15 -1.953579928015E-01  3.711362731768E-01 -1.485831020984E-02
C16  1.953579928015E-01 -3.711362731768E-01  1.485831020984E-02
C17 -2.981735360773E-02  3.471606926164E-01 -5.510989561744E-02
C18  2.981735360773E-02 -3.471606926164E-01  5.510989561744E-02
C19  9.305944674376E-02  2.420712538194E-01 -2.364208584380E-02
C20 -9.305944674376E-02 -2.420712538194E-01  2.364208584380E-02
C21  2.619562076827E-01  2.122209976421E-01 -6.391774820434E-02
C22 -2.619562076827E-01 -2.122209976421E-01  6.391774820434E-02
C23  3.822880667009E-01  1.077773438784E-01 -3.315195313078E-02
C24 -3.822880667009E-01 -1.077773438784E-01  3.315195313078E-02
C25  3.912073397159E-01 -1.505513930235E-01  1.512291464645E-01
C26 -3.912073397159E-01  1.505513930235E-01 -1.512291464645E-01
C27  3.431889347756E-01 -2.134830218956E-01  2.161622903291E-01
C28 -3.431889347756E-01  2.134830218956E-01 -2.161622903291E-01
C29  3.259376549508E-01  4.751084783087E-01  3.076029065400E-01
C30 -3.259376549508E-01 -4.751084783087E-01 -3.076029065400E-01
C31  2.542453002038E-01  4.102820115252E-01  2.435454709030E-01
C32 -2.542453002038E-01 -4.102820115252E-01 -2.435454709030E-01
C33 -4.820695263822E-01  4.213107316415E-01  2.902507377699E-01
C34  4.820695263822E-01 -4.213107316415E-01 -2.902507377699E-01
C35  3.685959363294E-01 -2.227583962009E-01  3.906063533237E-01
C36 -3.685959363294E-01  2.227583962009E-01 -3.906063533237E-01
C37  3.175236856040E-01 -2.856774019536E-01  4.776429308311E-01
C38 -3.175236856040E-01  2.856774019536E-01 -4.776429308311E-01
C39  3.525624204123E-01 -4.327612685429E-02  3.894322195173E-01
C40 -3.525624204123E-01  4.327612685429E-02 -3.894322195173E-01
C41  1.977271827451E-02 -2.441028439604E-01  3.379754986250E-01
C42 -1.977271827451E-02  2.441028439604E-01 -3.379754986250E-01
C43 -7.587913756491E-02 -3.306994042744E-01  4.106140752008E-01
C44  7.587913756491E-02  3.306994042744E-01 -4.106140752008E-01
C45 -4.558334023786E-02 -6.635476741854E-02  3.439095376430E-01
C46  4.558334023786E-02  6.635476741854E-02 -3.439095376430E-01
H47  1.137081062442E-01  1.442941184080E-03  1.404527822620E-01
H48 -1.137081062442E-01 -1.442941184080E-03 -1.404527822620E-01
H49 -1.793417605680E-01  1.321270719973E-01  1.493958897425E-01
H50  1.793417605680E-01 -1.321270719973E-01 -1.493958897425E-01
H51 -3.832917486248E-01  3.109457166928E-01  9.023146607733E-02
H52  3.832917486248E-01 -3.109457166928E-01 -9.023146607733E-02
H53 -2.872549917408E-01  4.515215862316E-01 -3.900216404583E-02
H54  2.872549917408E-01 -4.515215862316E-01  3.900216404583E-02
H55  1.215557823273E-02  4.087054563646E-01 -1.114078627851E-01
H56 -1.215557823273E-02 -4.087054563646E-01  1.114078627851E-01
H57  3.040362111487E-01  2.702523882381E-01 -1.212930879590E-01
H58 -3.040362111487E-01 -2.702523882381E-01  1.212930879590E-01
H59  2.694466968072E-01  4.275966527947E-01  3.670802423605E-01
H60 -2.694466968072E-01 -4.275966527947E-01 -3.670802423605E-01
H61  2.983861323273E-01  4.624639405541E-01  1.839633541829E-01
H62 -2.983861323273E-01 -4.624639405541E-01 -1.839633541829E-01
H63  1.164855840178E-01  4.344643819442E-01  2.586507186270E-01
H64 -1.164855840178E-01 -4.344643819442E-01 -2.586507186270E-01
H65  2.938918075374E-01  2.829250442161E-01  2.375638546865E-01
H66 -2.938918075374E-01 -2.829250442161E-01 -2.375638546865E-01
H67 -4.495902994347E-01  2.931124652918E-01  2.862709096781E-01
H68  4.495902994347E-01 -2.931124652918E-01 -2.862709096781E-01
H69 -4.294177036130E-01  4.573954808298E-01  3.377643064368E-01
H70  4.294177036130E-01 -4.573954808298E-01 -3.377643064368E-01
H71 -4.177689077244E-01  4.684781379284E-01  2.324904063683E-01
H72  4.177689077244E-01 -4.684781379284E-01 -2.324904063683E-01
H73 -4.974414672859E-01 -2.712405439529E-01  3.656927091316E-01
H74  4.974414672859E-01  2.712405439529E-01 -3.656927091316E-01
H75  3.923442726323E-01 -2.486826951982E-01 -4.843832448548E-01
H76 -3.923442726323E-01  2.486826951982E-01  4.843832448548E-01
H77  3.357143199033E-01 -4.138953832606E-01  4.797161195312E-01
H78 -3.357143199033E-01  4.138953832606E-01 -4.797161195312E-01
H79  1.850593767566E-01 -2.408323554939E-01 -4.935453134920E-01
H80 -1.850593767566E-01  2.408323554939E-01  4.935453134920E-01
H81  2.236781227286E-01  1.481314680091E-02  4.167993998487E-01
H82 -2.236781227286E-01 -1.481314680091E-02 -4.167993998487E-01
H83  3.884381546042E-01  1.313005337263E-03  3.274922948067E-01
H84 -3.884381546042E-01 -1.313005337263E-03 -3.274922948067E-01
H85  4.340716223271E-01 -6.811474996808E-03  4.240409049815E-01
H86 -4.340716223271E-01  6.811474996808E-03 -4.240409049815E-01
H87 -5.651332314701E-03 -2.846017575324E-01  2.827644029404E-01
H88  5.651332314701E-03  2.846017575324E-01 -2.827644029404E-01
H89 -3.704669263815E-02 -4.580194270217E-01  4.057620190122E-01
H90  3.704669263815E-02  4.580194270217E-01 -4.057620190122E-01
H91 -2.118234028729E-01 -3.040967708446E-01  4.151026496033E-01
H92  2.118234028729E-01  3.040967708446E-01 -4.151026496033E-01
H93 -5.687161284591E-02 -2.950576145489E-01  4.680126844125E-01
H94  5.687161284591E-02  2.950576145489E-01 -4.680126844125E-01
H95  2.374082589143E-02 -2.668841929169E-03  2.937106818811E-01
H96 -2.374082589143E-02  2.668841929169E-03 -2.937106818811E-01
H97 -3.505861290340E-02 -1.884907421981E-02  4.005314540718E-01
H98  3.505861290340E-02  1.884907421981E-02 -4.005314540718E-01
H99 -1.792114396490E-01 -3.970984963119E-02  3.432366353352E-01
H100  1.792114396490E-01  3.970984963119E-02 -3.432366353352E-01


#===END

data_OPT_STEP_43

_symmetry_space_group_name_H-M 'P 1'
_cell_length_a      8.32418008
_cell_length_b      8.66959624
_cell_length_c     17.00134631
_cell_angle_alpha   87.260813
_cell_angle_beta   75.562979
_cell_angle_gamma   79.409274

loop_
_atom_site_label
_atom_site_fract_x
_atom_site_fract_y
_atom_site_fract_z
SI1  2.615935307219E-01 -3.007065512010E-01  3.164715607330E-01
SI2 -2.615935307219E-01  3.007065512010E-01 -3.164715607330E-01
C3  4.456716457651E-01 -7.594497598130E-02  7.579766592901E-02
C4 -4.456716457651E-01  7.594497598130E-02 -7.579766592901E-02
C5  3.272154714128E-01  3.056821136017E-02  4.357228523268E-02
C6 -3.272154714128E-01 -3.056821136017E-02 -4.357228523268E-02
C7  1.552825285559E-01  6.203591883208E-02  8.390410265381E-02
C8 -1.552825285559E-01 -6.203591883208E-02 -8.390410265381E-02
C9  3.793202018807E-02  1.639349733039E-01  5.265219897836E-02
C10 -3.793202018807E-02 -1.639349733039E-01 -5.265219897836E-02
C11 -1.375567523410E-01  1.929436651831E-01  9.275560545750E-02
C12  1.375567523410E-01 -1.929436651831E-01 -9.275560545750E-02
C13 -2.502027395863E-01  2.920986602094E-01  5.995089848311E-02
C14  2.502027395863E-01 -2.920986602094E-01 -5.995089848311E-02
C15 -1.953055166872E-01  3.711298751466E-01 -1.486501450997E-02
C16  1.953055166872E-01 -3.711298751466E-01  1.486501450997E-02
C17 -2.982479784288E-02  3.471005944688E-01 -5.511840143869E-02
C18  2.982479784288E-02 -3.471005944688E-01  5.511840143869E-02
C19  9.306698016356E-02  2.420190787915E-01 -2.365445276072E-02
C20 -9.306698016356E-02 -2.420190787915E-01  2.365445276072E-02
C21  2.619161254337E-01  2.121559633501E-01 -6.392255184581E-02
C22 -2.619161254337E-01 -2.121559633501E-01  6.392255184581E-02
C23  3.822591063425E-01  1.077203924829E-01 -3.315794014252E-02
C24 -3.822591063425E-01 -1.077203924829E-01  3.315794014252E-02
C25  3.913195929865E-01 -1.505674201218E-01  1.512055152163E-01
C26 -3.913195929865E-01  1.505674201218E-01 -1.512055152163E-01
C27  3.432900349829E-01 -2.134452855388E-01  2.161439499766E-01
C28 -3.432900349829E-01  2.134452855388E-01 -2.161439499766E-01
C29  3.259365119202E-01  4.750604563301E-01  3.075019011441E-01
C30 -3.259365119202E-01 -4.750604563301E-01 -3.075019011441E-01
C31  2.539234072287E-01  4.103143890904E-01  2.435038797292E-01
C32 -2.539234072287E-01 -4.103143890904E-01 -2.435038797292E-01
C33 -4.821210227831E-01  4.210902244954E-01  2.900308892341E-01
C34  4.821210227831E-01 -4.210902244954E-01 -2.900308892341E-01
C35  3.689349008817E-01 -2.229286366748E-01  3.905782397121E-01
C36 -3.689349008817E-01  2.229286366748E-01 -3.905782397121E-01
C37  3.178043110100E-01 -2.857881029044E-01  4.776154843299E-01
C38 -3.178043110100E-01  2.857881029044E-01 -4.776154843299E-01
C39  3.532004101342E-01 -4.342871636611E-02  3.894059604537E-01
C40 -3.532004101342E-01  4.342871636611E-02 -3.894059604537E-01
C41  2.000797422286E-02 -2.439447007816E-01  3.379945971876E-01
C42 -2.000797422286E-02  2.439447007816E-01 -3.379945971876E-01
C43 -7.554703945642E-02 -3.304819999217E-01  4.106499394169E-01
C44  7.554703945642E-02  3.304819999217E-01 -4.106499394169E-01
C45 -4.523363688527E-02 -6.615820896615E-02  3.439546959219E-01
C46  4.523363688527E-02  6.615820896615E-02 -3.439546959219E-01
H47  1.138086816007E-01  1.369464662184E-03  1.404041511225E-01
H48 -1.138086816007E-01 -1.369464662184E-03 -1.404041511225E-01
H49 -1.791087749157E-01  1.322669076215E-01  1.493804505401E-01
H50  1.791087749157E-01 -1.322669076215E-01 -1.493804505401E-01
H51 -3.831037690309E-01  3.110543058398E-01  9.023409811495E-02
H52  3.831037690309E-01 -3.110543058398E-01 -9.023409811495E-02
H53 -2.871989356980E-01  4.515473838452E-01 -3.900424495824E-02
H54  2.871989356980E-01 -4.515473838452E-01  3.900424495824E-02
H55  1.210062028295E-02  4.086279132836E-01 -1.114082925646E-01
H56 -1.210062028295E-02 -4.086279132836E-01  1.114082925646E-01
H57  3.039363862880E-01  2.701410960745E-01 -1.212932457105E-01
H58 -3.039363862880E-01 -2.701410960745E-01  1.212932457105E-01
H59  2.695998424055E-01  4.275942728359E-01  3.669990866191E-01
H60 -2.695998424055E-01 -4.275942728359E-01 -3.669990866191E-01
H61  2.981349165904E-01  4.623099693395E-01  1.838852514068E-01
H62 -2.981349165904E-01 -4.623099693395E-01 -1.838852514068E-01
H63  1.161725163266E-01  4.348673109414E-01  2.586409775962E-01
H64 -1.161725163266E-01 -4.348673109414E-01 -2.586409775962E-01
H65  2.932118928694E-01  2.828395115464E-01  2.375752420738E-01
H66 -2.932118928694E-01 -2.828395115464E-01 -2.375752420738E-01
H67 -4.497679991780E-01  2.928606365332E-01  2.860659312868E-01
H68  4.497679991780E-01 -2.928606365332E-01 -2.860659312868E-01
H69 -4.292361781954E-01  4.571966103906E-01  3.374791216921E-01
H70  4.292361781954E-01 -4.571966103906E-01 -3.374791216921E-01
H71 -4.179772368858E-01  4.681272015300E-01  2.322262412484E-01
H72  4.179772368858E-01 -4.681272015300E-01 -2.322262412484E-01
H73 -4.971649587357E-01 -2.716021799416E-01  3.656659627421E-01
H74  4.971649587357E-01  2.716021799416E-01 -3.656659627421E-01
H75  3.927693016502E-01 -2.489990909644E-01 -4.844183500561E-01
H76 -3.927693016502E-01  2.489990909644E-01  4.844183500561E-01
H77  3.357130987793E-01 -4.140152490295E-01  4.796921393687E-01
H78 -3.357130987793E-01  4.140152490295E-01 -4.796921393687E-01
H79  1.854281387778E-01 -2.406838327736E-01 -4.935713858447E-01
H80 -1.854281387778E-01  2.406838327736E-01  4.935713858447E-01
H81  2.243870694346E-01  1.485907227187E-02  4.167322929581E-01
H82 -2.243870694346E-01 -1.485907227187E-02 -4.167322929581E-01
H83  3.892144229609E-01  1.133692433206E-03  3.274722429374E-01
H84 -3.892144229609E-01 -1.133692433206E-03 -3.274722429374E-01
H85  4.347296931992E-01 -7.137990451676E-03  4.240590095825E-01
H86 -4.347296931992E-01  7.137990451676E-03 -4.240590095825E-01
H87 -5.553992870810E-03 -2.844201230205E-01  2.827915472267E-01
H88  5.553992870810E-03  2.844201230205E-01 -2.827915472267E-01
H89 -3.673467964825E-02 -4.578156368163E-01  4.057977926695E-01
H90  3.673467964825E-02  4.578156368163E-01 -4.057977926695E-01
H91 -2.114697898005E-01 -3.038622891167E-01  4.151599967466E-01
H92  2.114697898005E-01  3.038622891167E-01 -4.151599967466E-01
H93 -5.646849888540E-02 -2.948024898839E-01  4.680396291580E-01
H94  5.646849888540E-02  2.948024898839E-01 -4.680396291580E-01
H95  2.415210226864E-02 -2.448190225456E-03  2.937906152127E-01
H96 -2.415210226864E-02  2.448190225456E-03 -2.937906152127E-01
H97 -3.474321135437E-02 -1.872416507874E-02  4.006014458065E-01
H98  3.474321135437E-02  1.872416507874E-02 -4.006014458065E-01
H99 -1.787969450407E-01 -3.943288771615E-02  3.432408449964E-01
H100  1.787969450407E-01  3.943288771615E-02 -3.432408449964E-01


#===END

data_OPT_STEP_44

_symmetry_space_group_name_H-M 'P 1'
_cell_length_a      8.32488809
_cell_length_b      8.67257428
_cell_length_c     16.99344604
_cell_angle_alpha   87.245542
_cell_angle_beta   75.614545
_cell_angle_gamma   79.391667

loop_
_atom_site_label
_atom_site_fract_x
_atom_site_fract_y
_atom_site_fract_z
SI1  2.621275998538E-01 -3.006846086404E-01  3.165534824989E-01
SI2 -2.621275998538E-01  3.006846086404E-01 -3.165534824989E-01
C3  4.457709795477E-01 -7.612315238039E-02  7.577584609983E-02
C4 -4.457709795477E-01  7.612315238039E-02 -7.577584609983E-02
C5  3.272569298482E-01  3.041980369297E-02  4.353793227845E-02
C6 -3.272569298482E-01 -3.041980369297E-02 -4.353793227845E-02
C7  1.554067053069E-01  6.185883167630E-02  8.385161038568E-02
C8 -1.554067053069E-01 -6.185883167630E-02 -8.385161038568E-02
C9  3.801951535548E-02  1.638272819057E-01  5.259500556368E-02
C10 -3.801951535548E-02 -1.638272819057E-01 -5.259500556368E-02
C11 -1.373430506655E-01  1.929136401000E-01  9.270055083831E-02
C12  1.373430506655E-01 -1.929136401000E-01 -9.270055083831E-02
C13 -2.500047908133E-01  2.922573468501E-01  5.992525293192E-02
C14  2.500047908133E-01 -2.922573468501E-01 -5.992525293192E-02
C15 -1.952710980730E-01  3.713328889391E-01 -1.488262298411E-02
C16  1.952710980730E-01 -3.713328889391E-01  1.488262298411E-02
C17 -2.994343178590E-02  3.471263715859E-01 -5.516382593008E-02
C18  2.994343178590E-02 -3.471263715859E-01  5.516382593008E-02
C19  9.301982237410E-02  2.420112406168E-01 -2.369953835713E-02
C20 -9.301982237410E-02 -2.420112406168E-01  2.369953835713E-02
C21  2.618322513438E-01  2.122696934121E-01 -6.393887041352E-02
C22 -2.618322513438E-01 -2.122696934121E-01  6.393887041352E-02
C23  3.821966866351E-01  1.077130916334E-01 -3.317612955876E-02
C24 -3.821966866351E-01 -1.077130916334E-01  3.317612955876E-02
C25  3.916275204439E-01 -1.506683053367E-01  1.512190968527E-01
C26 -3.916275204439E-01  1.506683053367E-01 -1.512190968527E-01
C27  3.436149824147E-01 -2.133674627929E-01  2.162162253107E-01
C28 -3.436149824147E-01  2.133674627929E-01 -2.162162253107E-01
C29  3.262633436276E-01  4.751231597105E-01  3.075276802620E-01
C30 -3.262633436276E-01 -4.751231597105E-01 -3.075276802620E-01
C31  2.540614350477E-01  4.106269271067E-01  2.434930586528E-01
C32 -2.540614350477E-01 -4.106269271067E-01 -2.434930586528E-01
C33 -4.818415744066E-01  4.209714040519E-01  2.900591595214E-01
C34  4.818415744066E-01 -4.209714040519E-01 -2.900591595214E-01
C35  3.697704330552E-01 -2.232756176629E-01  3.906815711444E-01
C36 -3.697704330552E-01  2.232756176629E-01 -3.906815711444E-01
C37  3.188390589545E-01 -2.861780472746E-01  4.777241608361E-01
C38 -3.188390589545E-01  2.861780472746E-01 -4.777241608361E-01
C39  3.542853541878E-01 -4.392623491090E-02  3.895455268319E-01
C40 -3.542853541878E-01  4.392623491090E-02 -3.895455268319E-01
C41  2.059776027815E-02 -2.437248799850E-01  3.381377569276E-01
C42 -2.059776027815E-02  2.437248799850E-01 -3.381377569276E-01
C43 -7.477668729481E-02 -3.304590990997E-01  4.107582286268E-01
C44  7.477668729481E-02  3.304590990997E-01 -4.107582286268E-01
C45 -4.449403284741E-02 -6.594124430669E-02  3.442457809797E-01
C46  4.449403284741E-02  6.594124430669E-02 -3.442457809797E-01
H47  1.140130365839E-01  1.054734736826E-03  1.403272417533E-01
H48 -1.140130365839E-01 -1.054734736826E-03 -1.403272417533E-01
H49 -1.787895127267E-01  1.321842707785E-01  1.493154936215E-01
H50  1.787895127267E-01 -1.321842707785E-01 -1.493154936215E-01
H51 -3.828846667765E-01  3.111202584171E-01  9.019876375922E-02
H52  3.828846667765E-01 -3.111202584171E-01 -9.019876375922E-02
H53 -2.871851961795E-01  4.518632187631E-01 -3.901025167622E-02
H54  2.871851961795E-01 -4.518632187631E-01  3.901025167622E-02
H55  1.191054754727E-02  4.088156380810E-01 -1.114256496759E-01
H56 -1.191054754727E-02 -4.088156380810E-01  1.114256496759E-01
H57  3.037289814318E-01  2.702581341596E-01 -1.213098464284E-01
H58 -3.037289814318E-01 -2.702581341596E-01  1.213098464284E-01
H59  2.699780174221E-01  4.276310997564E-01  3.670307694300E-01
H60 -2.699780174221E-01 -4.276310997564E-01 -3.670307694300E-01
H61  2.982843824793E-01  4.626311810953E-01  1.838629438239E-01
H62 -2.982843824793E-01 -4.626311810953E-01 -1.838629438239E-01
H63  1.163291521631E-01  4.353609309840E-01  2.586104286015E-01
H64 -1.163291521631E-01 -4.353609309840E-01 -2.586104286015E-01
H65  2.931698777829E-01  2.831659658228E-01  2.375662488434E-01
H66 -2.931698777829E-01 -2.831659658228E-01 -2.375662488434E-01
H67 -4.496280970403E-01  2.927729123658E-01  2.861026835271E-01
H68  4.496280970403E-01 -2.927729123658E-01 -2.861026835271E-01
H69 -4.288095825948E-01  4.569521082026E-01  3.375142887508E-01
H70  4.288095825948E-01 -4.569521082026E-01 -3.375142887508E-01
H71 -4.177501436117E-01  4.679650660308E-01  2.322371575510E-01
H72  4.177501436117E-01 -4.679650660308E-01 -2.322371575510E-01
H73 -4.964383885724E-01 -2.720933493818E-01  3.657647443169E-01
H74  4.964383885724E-01  2.720933493818E-01 -3.657647443169E-01
H75  3.941454359151E-01 -2.497664472007E-01 -4.843513958914E-01
H76 -3.941454359151E-01  2.497664472007E-01  4.843513958914E-01
H77  3.364222284560E-01 -4.142940017016E-01  4.797865980483E-01
H78 -3.364222284560E-01  4.142940017016E-01 -4.797865980483E-01
H79  1.866520857539E-01 -2.408381164500E-01 -4.934159916151E-01
H80 -1.866520857539E-01  2.408381164500E-01  4.934159916151E-01
H81  2.255977496714E-01  1.443817849973E-02  4.168512177466E-01
H82 -2.255977496714E-01 -1.443817849973E-02 -4.168512177466E-01
H83  3.902819745273E-01  6.928193434164E-04  3.276184256360E-01
H84 -3.902819745273E-01 -6.928193434164E-04 -3.276184256360E-01
H85  4.358969578801E-01 -7.928256877335E-03  4.242596033690E-01
H86 -4.358969578801E-01  7.928256877335E-03 -4.242596033690E-01
H87 -5.212461470360E-03 -2.838730768363E-01  2.828875186666E-01
H88  5.212461470360E-03  2.838730768363E-01 -2.828875186666E-01
H89 -3.606511916243E-02 -4.577913212221E-01  4.058037220538E-01
H90  3.606511916243E-02  4.577913212221E-01 -4.058037220538E-01
H91 -2.106991486113E-01 -3.036859490343E-01  4.152994489251E-01
H92  2.106991486113E-01  3.036859490343E-01 -4.152994489251E-01
H93 -5.547061021786E-02 -2.950852166256E-01  4.681898963334E-01
H94  5.547061021786E-02  2.950852166256E-01 -4.681898963334E-01
H95  2.494293578230E-02 -2.000340787932E-03  2.941710698981E-01
H96 -2.494293578230E-02  2.000340787932E-03 -2.941710698981E-01
H97 -3.398153747931E-02 -1.891272024471E-02  4.009827905559E-01
H98  3.398153747931E-02  1.891272024471E-02 -4.009827905559E-01
H99 -1.779922390876E-01 -3.903804929751E-02  3.434689722737E-01
H100  1.779922390876E-01  3.903804929751E-02 -3.434689722737E-01


#===END

data_OPT_STEP_45

_symmetry_space_group_name_H-M 'P 1'
_cell_length_a      8.32993414
_cell_length_b      8.67260919
_cell_length_c     16.97638717
_cell_angle_alpha   87.333095
_cell_angle_beta   75.728428
_cell_angle_gamma   79.365178

loop_
_atom_site_label
_atom_site_fract_x
_atom_site_fract_y
_atom_site_fract_z
SI1  2.631219717818E-01 -3.012894939233E-01  3.163119722931E-01
SI2 -2.631219717818E-01  3.012894939233E-01 -3.163119722931E-01
C3  4.460456644138E-01 -7.627344715331E-02  7.571829822696E-02
C4 -4.460456644138E-01  7.627344715331E-02 -7.571829822696E-02
C5  3.274520641486E-01  3.030476578659E-02  4.349706105008E-02
C6 -3.274520641486E-01 -3.030476578659E-02 -4.349706105008E-02
C7  1.558154176159E-01  6.170511346449E-02  8.377124464062E-02
C8 -1.558154176159E-01 -6.170511346449E-02 -8.377124464062E-02
C9  3.835074501411E-02  1.636975610951E-01  5.252968529734E-02
C10 -3.835074501411E-02 -1.636975610951E-01 -5.252968529734E-02
C11 -1.367951059115E-01  1.927648512946E-01  9.259591004095E-02
C12  1.367951059115E-01 -1.927648512946E-01 -9.259591004095E-02
C13 -2.495313293449E-01  2.921961459228E-01  5.985565848671E-02
C14  2.495313293449E-01 -2.921961459228E-01 -5.985565848671E-02
C15 -1.951075314367E-01  3.713369249594E-01 -1.488877079714E-02
C16  1.951075314367E-01 -3.713369249594E-01  1.488877079714E-02
C17 -2.999847974543E-02  3.471097408440E-01 -5.514655358781E-02
C18  2.999847974543E-02 -3.471097408440E-01  5.514655358781E-02
C19  9.303523272096E-02  2.419321469541E-01 -2.371025916014E-02
C20 -9.303523272096E-02 -2.419321469541E-01  2.371025916014E-02
C21  2.616557587996E-01  2.122773758826E-01 -6.390582036928E-02
C22 -2.616557587996E-01 -2.122773758826E-01  6.390582036928E-02
C23  3.821091408745E-01  1.077199370842E-01 -3.315582888442E-02
C24 -3.821091408745E-01 -1.077199370842E-01  3.315582888442E-02
C25  3.921632010956E-01 -1.510461039271E-01  1.510958426429E-01
C26 -3.921632010956E-01  1.510461039271E-01 -1.510958426429E-01
C27  3.442070000743E-01 -2.137493769747E-01  2.160628658560E-01
C28 -3.442070000743E-01  2.137493769747E-01 -2.160628658560E-01
C29  3.269275928264E-01  4.744852455356E-01  3.069948898763E-01
C30 -3.269275928264E-01 -4.744852455356E-01 -3.069948898763E-01
C31  2.542136276812E-01  4.103059160298E-01  2.429030947790E-01
C32 -2.542136276812E-01 -4.103059160298E-01 -2.429030947790E-01
C33 -4.813683558839E-01  4.199997386956E-01  2.893938142889E-01
C34  4.813683558839E-01 -4.199997386956E-01 -2.893938142889E-01
C35  3.712785395419E-01 -2.243986238117E-01  3.905614573736E-01
C36 -3.712785395419E-01  2.243986238117E-01 -3.905614573736E-01
C37  3.204132820241E-01 -2.870718669085E-01  4.776293080828E-01
C38 -3.204132820241E-01  2.870718669085E-01 -4.776293080828E-01
C39  3.565799817194E-01 -4.507690594086E-02  3.894740396538E-01
C40 -3.565799817194E-01  4.507690594086E-02 -3.894740396538E-01
C41  2.179030839667E-02 -2.439650894295E-01  3.380207388734E-01
C42 -2.179030839667E-02  2.439650894295E-01 -3.380207388734E-01
C43 -7.323734949680E-02 -3.305529130726E-01  4.106645672586E-01
C44  7.323734949680E-02  3.305529130726E-01 -4.106645672586E-01
C45 -4.302324224953E-02 -6.614083632486E-02  3.442448513489E-01
C46  4.302324224953E-02  6.614083632486E-02 -3.442448513489E-01
H47  1.146324082361E-01  7.710602534715E-04  1.401790449464E-01
H48 -1.146324082361E-01 -7.710602534715E-04 -1.401790449464E-01
H49 -1.780243595553E-01  1.319839331885E-01  1.491615125507E-01
H50  1.780243595553E-01 -1.319839331885E-01 -1.491615125507E-01
H51 -3.822336349944E-01  3.110956068108E-01  9.012278051430E-02
H52  3.822336349944E-01 -3.110956068108E-01 -9.012278051430E-02
H53 -2.870517907066E-01  4.519676665718E-01 -3.898647276142E-02
H54  2.870517907066E-01 -4.519676665718E-01  3.898647276142E-02
H55  1.165824042747E-02  4.089323397106E-01 -1.113430901883E-01
H56 -1.165824042747E-02 -4.089323397106E-01  1.113430901883E-01
H57  3.033079688650E-01  2.703027927396E-01 -1.212316572737E-01
H58 -3.033079688650E-01 -2.703027927396E-01  1.212316572737E-01
H59  2.709762289416E-01  4.269781893548E-01  3.664904058567E-01
H60 -2.709762289416E-01 -4.269781893548E-01 -3.664904058567E-01
H61  2.982405510760E-01  4.622487596621E-01  1.832768789447E-01
H62 -2.982405510760E-01 -4.622487596621E-01 -1.832768789447E-01
H63  1.166032788195E-01  4.354219618794E-01  2.580668990375E-01
H64 -1.166032788195E-01 -4.354219618794E-01 -2.580668990375E-01
H65  2.929690384892E-01  2.827745291067E-01  2.368841438769E-01
H66 -2.929690384892E-01 -2.827745291067E-01 -2.368841438769E-01
H67 -4.493524863178E-01  2.917939103796E-01  2.852558846402E-01
H68  4.493524863178E-01 -2.917939103796E-01 -2.852558846402E-01
H69 -4.279783280295E-01  4.556789276585E-01  3.368987424986E-01
H70  4.279783280295E-01 -4.556789276585E-01 -3.368987424986E-01
H71 -4.175989212513E-01  4.670540247463E-01  2.315975795572E-01
H72  4.175989212513E-01 -4.670540247463E-01 -2.315975795572E-01
H73 -4.951979712566E-01 -2.737351619550E-01  3.656381712104E-01
H74  4.951979712566E-01  2.737351619550E-01 -3.656381712104E-01
H75  3.961130665756E-01 -2.511092210466E-01 -4.844373027835E-01
H76 -3.961130665756E-01  2.511092210466E-01  4.844373027835E-01
H77  3.373803490121E-01 -4.151248317153E-01  4.796864475662E-01
H78 -3.373803490121E-01  4.151248317153E-01 -4.796864475662E-01
H79  1.885649592794E-01 -2.411377473381E-01 -4.935022318542E-01
H80 -1.885649592794E-01  2.411377473381E-01  4.935022318542E-01
H81  2.281853739863E-01  1.384748464969E-02  4.167149555163E-01
H82 -2.281853739863E-01 -1.384748464969E-02 -4.167149555163E-01
H83  3.927117327451E-01 -6.063173128300E-04  3.275445333490E-01
H84 -3.927117327451E-01  6.063173128300E-04 -3.275445333490E-01
H85  4.383685215352E-01 -9.511871860518E-03  4.243096723562E-01
H86 -4.383685215352E-01  9.511871860518E-03 -4.243096723562E-01
H87 -4.412002221281E-03 -2.840162155294E-01  2.827420563468E-01
H88  4.412002221281E-03  2.840162155294E-01 -2.827420563468E-01
H89 -3.477960904791E-02 -4.579340221208E-01  4.056062218321E-01
H90  3.477960904791E-02  4.579340221208E-01 -4.056062218321E-01
H91 -2.091210280584E-01 -3.034806386999E-01  4.153113550457E-01
H92  2.091210280584E-01  3.034806386999E-01 -4.153113550457E-01
H93 -5.343552033368E-02 -2.953048291302E-01  4.681232366467E-01
H94  5.343552033368E-02  2.953048291302E-01 -4.681232366467E-01
H95  2.629623123049E-02 -2.239208301182E-03  2.942012899138E-01
H96 -2.629623123049E-02  2.239208301182E-03 -2.942012899138E-01
H97 -3.225773477283E-02 -1.924535654497E-02  4.010365398198E-01
H98  3.225773477283E-02  1.924535654497E-02 -4.010365398198E-01
H99 -1.764241998185E-01 -3.902997866539E-02  3.434688530617E-01
H100  1.764241998185E-01  3.902997866539E-02 -3.434688530617E-01


#===END

data_OPT_STEP_46

_symmetry_space_group_name_H-M 'P 1'
_cell_length_a      8.33346642
_cell_length_b      8.68096950
_cell_length_c     16.94494137
_cell_angle_alpha   87.218150
_cell_angle_beta   75.876407
_cell_angle_gamma   79.279406

loop_
_atom_site_label
_atom_site_fract_x
_atom_site_fract_y
_atom_site_fract_z
SI1  2.648068940624E-01 -3.007850914371E-01  3.169517509058E-01
SI2 -2.648068940624E-01  3.007850914371E-01 -3.169517509058E-01
C3  4.465602859196E-01 -7.640633246274E-02  7.579467486498E-02
C4 -4.465602859196E-01  7.640633246274E-02 -7.579467486498E-02
C5  3.276761970908E-01  3.006423365267E-02  4.344714530448E-02
C6 -3.276761970908E-01 -3.006423365267E-02 -4.344714530448E-02
C7  1.563073413036E-01  6.130400721950E-02  8.368521534427E-02
C8 -1.563073413036E-01 -6.130400721950E-02 -8.368521534427E-02
C9  3.863339917060E-02  1.633920511730E-01  5.237157231124E-02
C10 -3.863339917060E-02 -1.633920511730E-01 -5.237157231124E-02
C11 -1.361866847929E-01  1.924756283165E-01  9.244354016690E-02
C12  1.361866847929E-01 -1.924756283165E-01 -9.244354016690E-02
C13 -2.490771830873E-01  2.923302184089E-01  5.972260791382E-02
C14  2.490771830873E-01 -2.923302184089E-01 -5.972260791382E-02
C15 -1.951073740786E-01  3.719001171909E-01 -1.501425077210E-02
C16  1.951073740786E-01 -3.719001171909E-01  1.501425077210E-02
C17 -3.033576213533E-02  3.475321421868E-01 -5.532415083719E-02
C18  3.033576213533E-02 -3.475321421868E-01  5.532415083719E-02
C19  9.283103955079E-02  2.419567624763E-01 -2.389664310552E-02
C20 -9.283103955079E-02 -2.419567624763E-01  2.389664310552E-02
C21  2.611535704744E-01  2.123261834425E-01 -6.409481705445E-02
C22 -2.611535704744E-01 -2.123261834425E-01  6.409481705445E-02
C23  3.817948743570E-01  1.075786721797E-01 -3.328444210241E-02
C24 -3.817948743570E-01 -1.075786721797E-01  3.328444210241E-02
C25  3.932612719996E-01 -1.509645795700E-01  1.513523807596E-01
C26 -3.932612719996E-01  1.509645795700E-01 -1.513523807596E-01
C27  3.453308315711E-01 -2.130909854378E-01  2.165660374997E-01
C28 -3.453308315711E-01  2.130909854378E-01 -2.165660374997E-01
C29  3.274623454487E-01  4.750454571552E-01  3.075717475394E-01
C30 -3.274623454487E-01 -4.750454571552E-01 -3.075717475394E-01
C31  2.529368751614E-01  4.117219068792E-01  2.437828741733E-01
C32 -2.529368751614E-01 -4.117219068792E-01 -2.437828741733E-01
C33 -4.810446446683E-01  4.195570577566E-01  2.894120544435E-01
C34  4.810446446683E-01 -4.195570577566E-01 -2.894120544435E-01
C35  3.741477129470E-01 -2.253601355417E-01  3.911977209258E-01
C36 -3.741477129470E-01  2.253601355417E-01 -3.911977209258E-01
C37  3.232458447721E-01 -2.877812292132E-01  4.784601539577E-01
C38 -3.232458447721E-01  2.877812292132E-01 -4.784601539577E-01
C39  3.610941903768E-01 -4.637373649685E-02  3.899375067888E-01
C40 -3.610941903768E-01  4.637373649685E-02 -3.899375067888E-01
C41  2.374512080081E-02 -2.423343549162E-01  3.389585876673E-01
C42 -2.374512080081E-02  2.423343549162E-01 -3.389585876673E-01
C43 -7.074888144444E-02 -3.290052312878E-01  4.117338249433E-01
C44  7.074888144444E-02  3.290052312878E-01 -4.117338249433E-01
C45 -4.015337347220E-02 -6.439157060896E-02  3.454015027340E-01
C46  4.015337347220E-02  6.439157060896E-02 -3.454015027340E-01
H47  1.155309181122E-01  2.021766486676E-04  1.401205896735E-01
H48 -1.155309181122E-01 -2.021766486676E-04 -1.401205896735E-01
H49 -1.770573149583E-01  1.314142355009E-01  1.490096082464E-01
H50  1.770573149583E-01 -1.314142355009E-01 -1.490096082464E-01
H51 -3.815836544816E-01  3.111929340591E-01  9.000904242960E-02
H52  3.815836544816E-01 -3.111929340591E-01 -9.000904242960E-02
H53 -2.870788180291E-01  4.530331943016E-01 -3.906684879772E-02
H54  2.870788180291E-01 -4.530331943016E-01  3.906684879772E-02
H55  1.098489085577E-02  4.096741252505E-01 -1.115128756528E-01
H56 -1.098489085577E-02 -4.096741252505E-01  1.115128756528E-01
H57  3.023536308643E-01  2.704033287243E-01 -1.214670358173E-01
H58 -3.023536308643E-01 -2.704033287243E-01  1.214670358173E-01
H59  2.723108158768E-01  4.276762257672E-01  3.672655221879E-01
H60 -2.723108158768E-01 -4.276762257672E-01 -3.672655221879E-01
H61  2.968482571288E-01  4.631142349480E-01  1.839100914406E-01
H62 -2.968482571288E-01 -4.631142349480E-01 -1.839100914406E-01
H63  1.153621537069E-01  4.383624126975E-01  2.592159128548E-01
H64 -1.153621537069E-01 -4.383624126975E-01 -2.592159128548E-01
H65  2.902401205199E-01  2.839051065389E-01  2.379985355316E-01
H66 -2.902401205199E-01 -2.839051065389E-01 -2.379985355316E-01
H67 -4.497463654555E-01  2.913783139090E-01  2.852259329158E-01
H68  4.497463654555E-01 -2.913783139090E-01 -2.852259329158E-01
H69 -4.263902287381E-01  4.545256908017E-01  3.367230153389E-01
H70  4.263902287381E-01 -4.545256908017E-01 -3.367230153389E-01
H71 -4.180372940999E-01  4.665201959317E-01  2.314185522222E-01
H72  4.180372940999E-01 -4.665201959317E-01 -2.314185522222E-01
H73 -4.927400713517E-01 -2.756885708233E-01  3.662811394354E-01
H74  4.927400713517E-01  2.756885708233E-01 -3.662811394354E-01
H75  4.004344237780E-01 -2.535936220712E-01 -4.837861520989E-01
H76 -4.004344237780E-01  2.535936220712E-01  4.837861520989E-01
H77  3.381013768271E-01 -4.156455931006E-01  4.806470245089E-01
H78 -3.381013768271E-01  4.156455931006E-01 -4.806470245089E-01
H79  1.920922821834E-01 -2.400481507192E-01 -4.924970251017E-01
H80 -1.920922821834E-01  2.400481507192E-01  4.924970251017E-01
H81  2.331743793481E-01  1.353973726838E-02  4.170314742603E-01
H82 -2.331743793481E-01 -1.353973726838E-02 -4.170314742603E-01
H83  3.976774638455E-01 -2.076185817789E-03  3.278898466268E-01
H84 -3.976774638455E-01  2.076185817789E-03 -3.278898466268E-01
H85  4.433148001415E-01 -1.198669114105E-02  4.249466352535E-01
H86 -4.433148001415E-01  1.198669114105E-02 -4.249466352535E-01
H87 -3.448708640377E-03 -2.816174932646E-01  2.836838563224E-01
H88  3.448708640377E-03  2.816174932646E-01 -2.836838563224E-01
H89 -3.239507676684E-02 -4.562771016712E-01  4.066694090817E-01
H90  3.239507676684E-02  4.562771016712E-01 -4.066694090817E-01
H91 -2.065785393655E-01 -3.017570333360E-01  4.164819513134E-01
H92  2.065785393655E-01  3.017570333360E-01 -4.164819513134E-01
H93 -5.041197225244E-02 -2.941471721983E-01  4.692005293209E-01
H94  5.041197225244E-02  2.941471721983E-01 -4.692005293209E-01
H95  2.845932880158E-02 -6.778166942662E-04  2.950523262347E-01
H96 -2.845932880158E-02  6.778166942662E-04 -2.950523262347E-01
H97 -2.752226224169E-02 -1.810014083097E-02  4.020687301420E-01
H98  2.752226224169E-02  1.810014083097E-02 -4.020687301420E-01
H99 -1.738866635592E-01 -3.639347446479E-02  3.452213491024E-01
H100  1.738866635592E-01  3.639347446479E-02 -3.452213491024E-01


#===END

data_OPT_STEP_47

_symmetry_space_group_name_H-M 'P 1'
_cell_length_a      8.33892109
_cell_length_b      8.66031358
_cell_length_c     16.97324886
_cell_angle_alpha   87.467493
_cell_angle_beta   75.890567
_cell_angle_gamma   79.338647

loop_
_atom_site_label
_atom_site_fract_x
_atom_site_fract_y
_atom_site_fract_z
SI1  2.651469745398E-01 -3.016408651170E-01  3.158698402523E-01
SI2 -2.651469745398E-01  3.016408651170E-01 -3.158698402523E-01
C3  4.465037395614E-01 -7.628171642442E-02  7.558617025853E-02
C4 -4.465037395614E-01  7.628171642442E-02 -7.558617025853E-02
C5  3.277035667680E-01  3.017628758408E-02  4.339365540698E-02
C6 -3.277035667680E-01 -3.017628758408E-02 -4.339365540698E-02
C7  1.562983151059E-01  6.136191560312E-02  8.353364150552E-02
C8 -1.562983151059E-01 -6.136191560312E-02 -8.353364150552E-02
C9  3.874573261104E-02  1.634276413141E-01  5.234705429353E-02
C10 -3.874573261104E-02 -1.634276413141E-01 -5.234705429353E-02
C11 -1.360805220019E-01  1.924488186577E-01  9.228764636228E-02
C12  1.360805220019E-01 -1.924488186577E-01 -9.228764636228E-02
C13 -2.488935431438E-01  2.919355529154E-01  5.961028510832E-02
C14  2.488935431438E-01 -2.919355529154E-01 -5.961028510832E-02
C15 -1.948340935184E-01  3.712942967276E-01 -1.491762466105E-02
C16  1.948340935184E-01 -3.712942967276E-01  1.491762466105E-02
C17 -3.002234865661E-02  3.471384586452E-01 -5.505742498810E-02
C18  3.002234865661E-02 -3.471384586452E-01  5.505742498810E-02
C19  9.306614762757E-02  2.418598252944E-01 -2.369532480431E-02
C20 -9.306614762757E-02 -2.418598252944E-01  2.369532480431E-02
C21  2.614180167533E-01  2.123164709658E-01 -6.378372717427E-02
C22 -2.614180167533E-01 -2.123164709658E-01  6.378372717427E-02
C23  3.819820803252E-01  1.077405821904E-01 -3.309281605787E-02
C24 -3.819820803252E-01 -1.077405821904E-01  3.309281605787E-02
C25  3.931013040109E-01 -1.510605287507E-01  1.508730495554E-01
C26 -3.931013040109E-01  1.510605287507E-01 -1.508730495554E-01
C27  3.454296591195E-01 -2.137363423459E-01  2.157782862450E-01
C28 -3.454296591195E-01  2.137363423459E-01 -2.157782862450E-01
C29  3.284448976912E-01  4.737878496999E-01  3.060261346966E-01
C30 -3.284448976912E-01 -4.737878496999E-01 -3.060261346966E-01
C31  2.562383881751E-01  4.102924889374E-01  2.414756028236E-01
C32 -2.562383881751E-01 -4.102924889374E-01 -2.414756028236E-01
C33 -4.802008317997E-01  4.188726117548E-01  2.887851831532E-01
C34  4.802008317997E-01 -4.188726117548E-01 -2.887851831532E-01
C35  3.742765659887E-01 -2.257732963729E-01  3.902517503071E-01
C36 -3.742765659887E-01  2.257732963729E-01 -3.902517503071E-01
C37  3.232615554094E-01 -2.884669038307E-01  4.771786624639E-01
C38 -3.232615554094E-01  2.884669038307E-01 -4.771786624639E-01
C39  3.610281180409E-01 -4.630232959919E-02  3.894374596521E-01
C40 -3.610281180409E-01  4.630232959919E-02 -3.894374596521E-01
C41  2.418099389637E-02 -2.435931520088E-01  3.378491038145E-01
C42 -2.418099389637E-02  2.435931520088E-01 -3.378491038145E-01
C43 -7.036349188153E-02 -3.301918973500E-01  4.103652483556E-01
C44  7.036349188153E-02  3.301918973500E-01 -4.103652483556E-01
C45 -4.001551958613E-02 -6.545245679402E-02  3.444343025466E-01
C46  4.001551958613E-02  6.545245679402E-02 -3.444343025466E-01
H47  1.154043788514E-01  1.225904433434E-04  1.397635354673E-01
H48 -1.154043788514E-01 -1.225904433434E-04 -1.397635354673E-01
H49 -1.769952234223E-01  1.315162054873E-01  1.486886444722E-01
H50  1.769952234223E-01 -1.315162054873E-01 -1.486886444722E-01
H51 -3.813699631995E-01  3.108111872381E-01  8.976698040102E-02
H52  3.813699631995E-01 -3.108111872381E-01 -8.976698040102E-02
H53 -2.868839279347E-01  4.520238650161E-01 -3.891863387478E-02
H54  2.868839279347E-01 -4.520238650161E-01  3.891863387478E-02
H55  1.138855932311E-02  4.091159688081E-01 -1.110846140342E-01
H56 -1.138855932311E-02 -4.091159688081E-01  1.110846140342E-01
H57  3.028992902994E-01  2.707504280810E-01 -1.209161397766E-01
H58 -3.028992902994E-01 -2.707504280810E-01  1.209161397766E-01
H59  2.722139928711E-01  4.258559395132E-01  3.652670235364E-01
H60 -2.722139928711E-01 -4.258559395132E-01 -3.652670235364E-01
H61  2.996595429764E-01  4.633549876500E-01  1.821948774474E-01
H62 -2.996595429764E-01 -4.633549876500E-01 -1.821948774474E-01
H63  1.189485353593E-01  4.346008734770E-01  2.565088702155E-01
H64 -1.189485353593E-01 -4.346008734770E-01 -2.565088702155E-01
H65  2.958069940046E-01  2.829484330198E-01  2.348595905438E-01
H66 -2.958069940046E-01 -2.829484330198E-01 -2.348595905438E-01
H67 -4.483942392806E-01  2.905120897387E-01  2.843290044147E-01
H68  4.483942392806E-01 -2.905120897387E-01 -2.843290044147E-01
H69 -4.271531432860E-01  4.539904357112E-01  3.366016161064E-01
H70  4.271531432860E-01 -4.539904357112E-01 -3.366016161064E-01
H71 -4.161538529532E-01  4.663150843562E-01  2.312839068483E-01
H72  4.161538529532E-01 -4.663150843562E-01 -2.312839068483E-01
H73 -4.926633898701E-01 -2.760218013493E-01  3.653692092432E-01
H74  4.926633898701E-01  2.760218013493E-01 -3.653692092432E-01
H75  3.996559553502E-01 -2.537304735855E-01 -4.848290125610E-01
H76 -3.996559553502E-01  2.537304735855E-01  4.848290125610E-01
H77  3.386835743316E-01 -4.166419702682E-01  4.791086104622E-01
H78 -3.386835743316E-01  4.166419702682E-01 -4.791086104622E-01
H79  1.920370458496E-01 -2.412041191188E-01 -4.939570891995E-01
H80 -1.920370458496E-01  2.412041191188E-01  4.939570891995E-01
H81  2.331271464782E-01  1.352679681448E-02  4.164718104112E-01
H82 -2.331271464782E-01 -1.352679681448E-02 -4.164718104112E-01
H83  3.977149523480E-01 -1.619941989958E-03  3.276873762197E-01
H84 -3.977149523480E-01  1.619941989958E-03 -3.276873762197E-01
H85  4.429212648845E-01 -1.176457990122E-02  4.245801856355E-01
H86 -4.429212648845E-01  1.176457990122E-02 -4.245801856355E-01
H87 -2.692137427382E-03 -2.833015082318E-01  2.825591778194E-01
H88  2.692137427382E-03  2.833015082318E-01 -2.825591778194E-01
H89 -3.236838422539E-02 -4.578015821206E-01  4.050520350067E-01
H90  3.236838422539E-02  4.578015821206E-01 -4.050520350067E-01
H91 -2.061524370463E-01 -3.026172683623E-01  4.152059457408E-01
H92  2.061524370463E-01  3.026172683623E-01 -4.152059457408E-01
H93 -4.975741253440E-02 -2.952819728202E-01  4.678083436671E-01
H94  4.975741253440E-02  2.952819728202E-01 -4.678083436671E-01
H95  2.937715118562E-02 -1.318425953032E-03  2.946565512836E-01
H96 -2.937715118562E-02  1.318425953032E-03 -2.946565512836E-01
H97 -2.913269509469E-02 -1.902833245075E-02  4.013375443147E-01
H98  2.913269509469E-02  1.902833245075E-02 -4.013375443147E-01
H99 -1.730818955478E-01 -3.786074539822E-02  3.435352256986E-01
H100  1.730818955478E-01  3.786074539822E-02 -3.435352256986E-01


#===END

data_OPT_STEP_48

_symmetry_space_group_name_H-M 'P 1'
_cell_length_a      8.33624486
_cell_length_b      8.67700981
_cell_length_c     16.95108120
_cell_angle_alpha   87.265868
_cell_angle_beta   75.881101
_cell_angle_gamma   79.286888

loop_
_atom_site_label
_atom_site_fract_x
_atom_site_fract_y
_atom_site_fract_z
SI1  2.650712246868E-01 -3.011008294809E-01  3.167337547834E-01
SI2 -2.650712246868E-01  3.011008294809E-01 -3.167337547834E-01
C3  4.465614180449E-01 -7.643094252750E-02  7.573587874352E-02
C4 -4.465614180449E-01  7.643094252750E-02 -7.573587874352E-02
C5  3.276825768563E-01  3.002306428091E-02  4.342782737159E-02
C6 -3.276825768563E-01 -3.002306428091E-02 -4.342782737159E-02
C7  1.563072549647E-01  6.115638101746E-02  8.362935988513E-02
C8 -1.563072549647E-01 -6.115638101746E-02 -8.362935988513E-02
C9  3.868058672556E-02  1.632864322270E-01  5.235504841109E-02
C10 -3.868058672556E-02 -1.632864322270E-01 -5.235504841109E-02
C11 -1.361280109502E-01  1.922984750335E-01  9.238082489404E-02
C12  1.361280109502E-01 -1.922984750335E-01 -9.238082489404E-02
C13 -2.489767950770E-01  2.920888596920E-01  5.967482521226E-02
C14  2.489767950770E-01 -2.920888596920E-01 -5.967482521226E-02
C15 -1.949861009013E-01  3.716810221032E-01 -1.499181866125E-02
C16  1.949861009013E-01 -3.716810221032E-01  1.499181866125E-02
C17 -3.021604353102E-02  3.474369134844E-01 -5.524380446588E-02
C18  3.021604353102E-02 -3.474369134844E-01  5.524380446588E-02
C19  9.291699778418E-02  2.419186481240E-01 -2.383706938983E-02
C20 -9.291699778418E-02 -2.419186481240E-01  2.383706938983E-02
C21  2.612425784259E-01  2.123909166786E-01 -6.399988173084E-02
C22 -2.612425784259E-01 -2.123909166786E-01  6.399988173084E-02
C23  3.818520096209E-01  1.076583397929E-01 -3.322732291682E-02
C24 -3.818520096209E-01 -1.076583397929E-01  3.322732291682E-02
C25  3.932550539857E-01 -1.510832549694E-01  1.512359224639E-01
C26 -3.932550539857E-01  1.510832549694E-01 -1.512359224639E-01
C27  3.454294452128E-01 -2.133986151293E-01  2.163784391617E-01
C28 -3.454294452128E-01  2.133986151293E-01 -2.163784391617E-01
C29  3.278615043403E-01  4.746764170572E-01  3.072433500735E-01
C30 -3.278615043403E-01 -4.746764170572E-01 -3.072433500735E-01
C31  2.540115456603E-01  4.113963545077E-01  2.432354985362E-01
C32 -2.540115456603E-01 -4.113963545077E-01 -2.432354985362E-01
C33 -4.807083306118E-01  4.193688265367E-01  2.893349991029E-01
C34  4.807083306118E-01 -4.193688265367E-01 -2.893349991029E-01
C35  3.745007631930E-01 -2.256480136241E-01  3.909786509794E-01
C36 -3.745007631930E-01  2.256480136241E-01 -3.909786509794E-01
C37  3.234795073005E-01 -2.880295832956E-01  4.781879523808E-01
C38 -3.234795073005E-01  2.880295832956E-01 -4.781879523808E-01
C39  3.616743589520E-01 -4.655328019858E-02  3.897613494194E-01
C40 -3.616743589520E-01  4.655328019858E-02 -3.897613494194E-01
C41  2.407347310687E-02 -2.426772530627E-01  3.387809850550E-01
C42 -2.407347310687E-02  2.426772530627E-01 -3.387809850550E-01
C43 -7.042241260307E-02 -3.292989411074E-01  4.115033680073E-01
C44  7.042241260307E-02  3.292989411074E-01 -4.115033680073E-01
C45 -3.980592571625E-02 -6.471705784080E-02  3.452743430005E-01
C46  3.980592571625E-02  6.471705784080E-02 -3.452743430005E-01
H47  1.154955030430E-01 -1.220528643430E-04  1.399901725474E-01
H48 -1.154955030430E-01  1.220528643430E-04 -1.399901725474E-01
H49 -1.769996760777E-01  1.312063414912E-01  1.488917207840E-01
H50  1.769996760777E-01 -1.312063414912E-01 -1.488917207840E-01
H51 -3.814600261823E-01  3.109303028952E-01  8.991501783546E-02
H52  3.814600261823E-01 -3.109303028952E-01 -8.991501783546E-02
H53 -2.869920839596E-01  4.526937538865E-01 -3.902673065751E-02
H54  2.869920839596E-01 -4.526937538865E-01  3.902673065751E-02
H55  1.113942180620E-02  4.096024420547E-01 -1.113775803665E-01
H56 -1.113942180620E-02 -4.096024420547E-01  1.113775803665E-01
H57  3.025546576431E-01  2.707164957623E-01 -1.212855400795E-01
H58 -3.025546576431E-01 -2.707164957623E-01  1.212855400795E-01
H59  2.724177584975E-01  4.271065689941E-01  3.668167959775E-01
H60 -2.724177584975E-01 -4.271065689941E-01 -3.668167959775E-01
H61  2.974180164994E-01  4.635580160139E-01  1.835689802622E-01
H62 -2.974180164994E-01 -4.635580160139E-01 -1.835689802622E-01
H63  1.165831322647E-01  4.369687848902E-01  2.586288714490E-01
H64 -1.165831322647E-01 -4.369687848902E-01 -2.586288714490E-01
H65  2.923252499074E-01  2.838917635020E-01  2.370906712526E-01
H66 -2.923252499074E-01 -2.838917635020E-01 -2.370906712526E-01
H67 -4.492676900121E-01  2.911791552254E-01  2.850717365077E-01
H68  4.492676900121E-01 -2.911791552254E-01 -2.850717365077E-01
H69 -4.265044745764E-01  4.543121136703E-01  3.367904602245E-01
H70  4.265044745764E-01 -4.543121136703E-01 -3.367904602245E-01
H71 -4.174257272263E-01  4.665047217750E-01  2.314745414180E-01
H72  4.174257272263E-01 -4.665047217750E-01 -2.314745414180E-01
H73 -4.924530042597E-01 -2.761128698833E-01  3.660902277624E-01
H74  4.924530042597E-01  2.761128698833E-01 -3.660902277624E-01
H75  4.004312245744E-01 -2.537264323073E-01 -4.839980649217E-01
H76 -4.004312245744E-01  2.537264323073E-01  4.839980649217E-01
H77  3.383935274995E-01 -4.159416059571E-01  4.803699675329E-01
H78 -3.383935274995E-01  4.159416059571E-01 -4.803699675329E-01
H79  1.923534029311E-01 -2.403442049254E-01 -4.928440377694E-01
H80 -1.923534029311E-01  2.403442049254E-01  4.928440377694E-01
H81  2.338204285261E-01  1.349163993011E-02  4.168012449111E-01
H82 -2.338204285261E-01 -1.349163993011E-02 -4.168012449111E-01
H83  3.984103064198E-01 -2.195590467677E-03  3.277815331582E-01
H84 -3.984103064198E-01  2.195590467677E-03 -3.277815331582E-01
H85  4.438306838130E-01 -1.224046385122E-02  4.248072878063E-01
H86 -4.438306838130E-01  1.224046385122E-02 -4.248072878063E-01
H87 -3.108116773601E-03 -2.819730351937E-01  2.835001009944E-01
H88  3.108116773601E-03  2.819730351937E-01 -2.835001009944E-01
H89 -3.230781566849E-02 -4.566650259277E-01  4.063483576736E-01
H90  3.230781566849E-02  4.566650259277E-01 -4.063483576736E-01
H91 -2.062372530739E-01 -3.018179346078E-01  4.163095368225E-01
H92  2.062372530739E-01  3.018179346078E-01 -4.163095368225E-01
H93 -4.985257320972E-02 -2.945565603817E-01  4.689616866036E-01
H94  4.985257320972E-02  2.945565603817E-01 -4.689616866036E-01
H95  2.914920512496E-02 -8.223856036364E-04  2.951324683157E-01
H96 -2.914920512496E-02  8.223856036364E-04 -2.951324683157E-01
H97 -2.780518760168E-02 -1.854533416161E-02  4.020440573531E-01
H98  2.780518760168E-02  1.854533416161E-02 -4.020440573531E-01
H99 -1.732598520904E-01 -3.677208371250E-02  3.448143248115E-01
H100  1.732598520904E-01  3.677208371250E-02 -3.448143248115E-01


#===END

data_OPT_STEP_49

_symmetry_space_group_name_H-M 'P 1'
_cell_length_a      8.33517476
_cell_length_b      8.67925773
_cell_length_c     16.94822457
_cell_angle_alpha   87.253009
_cell_angle_beta   75.920871
_cell_angle_gamma   79.309045

loop_
_atom_site_label
_atom_site_fract_x
_atom_site_fract_y
_atom_site_fract_z
SI1  2.654525876021E-01 -3.010712980010E-01  3.168747931812E-01
SI2 -2.654525876021E-01  3.010712980010E-01 -3.168747931812E-01
C3  4.466606913562E-01 -7.642933817967E-02  7.574595634862E-02
C4 -4.466606913562E-01  7.642933817967E-02 -7.574595634862E-02
C5  3.277186065806E-01  2.993548013194E-02  4.341043745297E-02
C6 -3.277186065806E-01 -2.993548013194E-02 -4.341043745297E-02
C7  1.563412153513E-01  6.081020219787E-02  8.356382869950E-02
C8 -1.563412153513E-01 -6.081020219787E-02 -8.356382869950E-02
C9  3.869689775168E-02  1.629577145387E-01  5.227954397733E-02
C10 -3.869689775168E-02 -1.629577145387E-01 -5.227954397733E-02
C11 -1.361380206168E-01  1.917696380083E-01  9.224845882361E-02
C12  1.361380206168E-01 -1.917696380083E-01 -9.224845882361E-02
C13 -2.489219506120E-01  2.917494600703E-01  5.957367271116E-02
C14  2.489219506120E-01 -2.917494600703E-01 -5.957367271116E-02
C15 -1.948713267142E-01  3.716899231063E-01 -1.500671177970E-02
C16  1.948713267142E-01 -3.716899231063E-01  1.500671177970E-02
C17 -3.010719003195E-02  3.475855375022E-01 -5.522544109715E-02
C18  3.010719003195E-02 -3.475855375022E-01  5.522544109715E-02
C19  9.296303210177E-02  2.418755436604E-01 -2.385476712198E-02
C20 -9.296303210177E-02 -2.418755436604E-01  2.385476712198E-02
C21  2.612610794123E-01  2.124917169039E-01 -6.399972445359E-02
C22 -2.612610794123E-01 -2.124917169039E-01  6.399972445359E-02
C23  3.818461053951E-01  1.076960727259E-01 -3.323292554756E-02
C24 -3.818461053951E-01 -1.076960727259E-01  3.323292554756E-02
C25  3.934240392649E-01 -1.510638069180E-01  1.513036757903E-01
C26 -3.934240392649E-01  1.510638069180E-01 -1.513036757903E-01
C27  3.456930381940E-01 -2.133136652862E-01  2.165027153595E-01
C28 -3.456930381940E-01  2.133136652862E-01 -2.165027153595E-01
C29  3.279654813954E-01  4.747969686148E-01  3.073191788065E-01
C30 -3.279654813954E-01 -4.747969686148E-01 -3.073191788065E-01
C31  2.538440931088E-01  4.117977093407E-01  2.433144601311E-01
C32 -2.538440931088E-01 -4.117977093407E-01 -2.433144601311E-01
C33 -4.806194285698E-01  4.193814036001E-01  2.893632220315E-01
C34  4.806194285698E-01 -4.193814036001E-01 -2.893632220315E-01
C35  3.751883244727E-01 -2.260060586848E-01  3.911531241443E-01
C36 -3.751883244727E-01  2.260060586848E-01 -3.911531241443E-01
C37  3.241010120224E-01 -2.883558384801E-01  4.783647043322E-01
C38 -3.241010120224E-01  2.883558384801E-01 -4.783647043322E-01
C39  3.628738016060E-01 -4.705862029280E-02  3.899736971059E-01
C40 -3.628738016060E-01  4.705862029280E-02 -3.899736971059E-01
C41  2.450404093232E-02 -2.424745838715E-01  3.389880398044E-01
C42 -2.450404093232E-02  2.424745838715E-01 -3.389880398044E-01
C43 -6.991342655295E-02 -3.292619073885E-01  4.116647460556E-01
C44  6.991342655295E-02  3.292619073885E-01 -4.116647460556E-01
C45 -3.907083265915E-02 -6.459852514022E-02  3.456303023180E-01
C46  3.907083265915E-02  6.459852514022E-02 -3.456303023180E-01
H47  1.155720951089E-01 -7.413986168882E-04  1.398729022846E-01
H48 -1.155720951089E-01  7.413986168882E-04 -1.398729022846E-01
H49 -1.770568174199E-01  1.303223649736E-01  1.486799855763E-01
H50  1.770568174199E-01 -1.303223649736E-01 -1.486799855763E-01
H51 -3.813760442169E-01  3.105685870186E-01  8.978012224633E-02
H52  3.813760442169E-01 -3.105685870186E-01 -8.978012224633E-02
H53 -2.868454242082E-01  4.528519252234E-01 -3.899001846840E-02
H54  2.868454242082E-01 -4.528519252234E-01  3.899001846840E-02
H55  1.131443002468E-02  4.099811937623E-01 -1.112992568451E-01
H56 -1.131443002468E-02 -4.099811937623E-01  1.112992568451E-01
H57  3.026300276245E-01  2.711240948427E-01 -1.212244930751E-01
H58 -3.026300276245E-01 -2.711240948427E-01  1.212244930751E-01
H59  2.725623056605E-01  4.271483160737E-01  3.668829811988E-01
H60 -2.725623056605E-01 -4.271483160737E-01 -3.668829811988E-01
H61  2.975402872485E-01  4.638202013108E-01  1.836188914498E-01
H62 -2.975402872485E-01 -4.638202013108E-01 -1.836188914498E-01
H63  1.163747295683E-01  4.377977453910E-01  2.586472171356E-01
H64 -1.163747295683E-01 -4.377977453910E-01 -2.586472171356E-01
H65  2.916889530512E-01  2.842308929466E-01  2.372546538776E-01
H66 -2.916889530512E-01 -2.842308929466E-01 -2.372546538776E-01
H67 -4.493504839884E-01  2.912608746041E-01  2.850151400013E-01
H68  4.493504839884E-01 -2.912608746041E-01 -2.850151400013E-01
H69 -4.262132661251E-01  4.540186512105E-01  3.368332743701E-01
H70  4.262132661251E-01 -4.540186512105E-01 -3.368332743701E-01
H71 -4.173769059101E-01  4.666630517749E-01  2.315315967378E-01
H72  4.173769059101E-01 -4.666630517749E-01 -2.315315967378E-01
H73 -4.918920498129E-01 -2.766811537743E-01  3.662967470680E-01
H74  4.918920498129E-01  2.766811537743E-01 -3.662967470680E-01
H75  4.015445577800E-01 -2.546335880197E-01 -4.838722307005E-01
H76 -4.015445577800E-01  2.546335880197E-01  4.838722307005E-01
H77  3.382707705286E-01 -4.161726804522E-01  4.805413747659E-01
H78 -3.382707705286E-01  4.161726804522E-01 -4.805413747659E-01
H79  1.932182030639E-01 -2.401342417328E-01 -4.926003276057E-01
H80 -1.932182030639E-01  2.401342417328E-01  4.926003276057E-01
H81  2.351877903119E-01  1.319440096082E-02  4.170181761559E-01
H82 -2.351877903119E-01 -1.319440096082E-02 -4.170181761559E-01
H83  3.996673107667E-01 -2.655521192370E-03  3.280175124963E-01
H84 -3.996673107667E-01  2.655521192370E-03 -3.280175124963E-01
H85  4.452643722786E-01 -1.310176871056E-02  4.250408637996E-01
H86 -4.452643722786E-01  1.310176871056E-02 -4.250408637996E-01
H87 -2.929885301217E-03 -2.813977508186E-01  2.836799503890E-01
H88  2.929885301217E-03  2.813977508186E-01 -2.836799503890E-01
H89 -3.209591600238E-02 -4.566147102117E-01  4.063694470905E-01
H90  3.209591600238E-02  4.566147102117E-01 -4.063694470905E-01
H91 -2.057801445527E-01 -3.015162914452E-01  4.165738576073E-01
H92  2.057801445527E-01  3.015162914452E-01 -4.165738576073E-01
H93 -4.889221947896E-02 -2.949578515296E-01  4.691371107764E-01
H94  4.889221947896E-02  2.949578515296E-01 -4.691371107764E-01
H95  2.973180285505E-02 -6.631565869957E-04  2.954690083015E-01
H96 -2.973180285505E-02  6.631565869957E-04 -2.954690083015E-01
H97 -2.654014827211E-02 -1.874115038158E-02  4.023830564415E-01
H98  2.654014827211E-02  1.874115038158E-02 -4.023830564415E-01
H99 -1.726227238710E-01 -3.643539931576E-02  3.453351851877E-01
H100  1.726227238710E-01  3.643539931576E-02 -3.453351851877E-01


#===END

data_OPT_STEP_50

_symmetry_space_group_name_H-M 'P 1'
_cell_length_a      8.33143759
_cell_length_b      8.67816020
_cell_length_c     16.94821453
_cell_angle_alpha   87.237654
_cell_angle_beta   75.965814
_cell_angle_gamma   79.344238

loop_
_atom_site_label
_atom_site_fract_x
_atom_site_fract_y
_atom_site_fract_z
SI1  2.659253866023E-01 -3.008438827708E-01  3.170110864369E-01
SI2 -2.659253866023E-01  3.008438827708E-01 -3.170110864369E-01
C3  4.467624759450E-01 -7.630612713531E-02  7.578539164566E-02
C4 -4.467624759450E-01  7.630612713531E-02 -7.578539164566E-02
C5  3.277679165840E-01  2.999363843308E-02  4.341174913319E-02
C6 -3.277679165840E-01 -2.999363843308E-02 -4.341174913319E-02
C7  1.564340108893E-01  6.086801851681E-02  8.355353663001E-02
C8 -1.564340108893E-01 -6.086801851681E-02 -8.355353663001E-02
C9  3.872477750941E-02  1.629763378468E-01  5.223971207703E-02
C10 -3.872477750941E-02 -1.629763378468E-01 -5.223971207703E-02
C11 -1.361126002931E-01  1.917535324086E-01  9.218601693861E-02
C12  1.361126002931E-01 -1.917535324086E-01 -9.218601693861E-02
C13 -2.489401964793E-01  2.917530626480E-01  5.950356873176E-02
C14  2.489401964793E-01 -2.917530626480E-01 -5.950356873176E-02
C15 -1.949162071764E-01  3.717884895282E-01 -1.505449091908E-02
C16  1.949162071764E-01 -3.717884895282E-01  1.505449091908E-02
C17 -3.016358248330E-02  3.476969860125E-01 -5.526477977080E-02
C18  3.016358248330E-02 -3.476969860125E-01  5.526477977080E-02
C19  9.292449507638E-02  2.419039377247E-01 -2.389798192642E-02
C20 -9.292449507638E-02 -2.419039377247E-01  2.389798192642E-02
C21  2.611739066356E-01  2.124574938991E-01 -6.405339715823E-02
C22 -2.611739066356E-01 -2.124574938991E-01  6.405339715823E-02
C23  3.818063170537E-01  1.076744031069E-01 -3.326650681557E-02
C24 -3.818063170537E-01 -1.076744031069E-01  3.326650681557E-02
C25  3.936228606136E-01 -1.507758164234E-01  1.514026211897E-01
C26 -3.936228606136E-01  1.507758164234E-01 -1.514026211897E-01
C27  3.460265589493E-01 -2.129240475440E-01  2.166468316708E-01
C28 -3.460265589493E-01  2.129240475440E-01 -2.166468316708E-01
C29  3.282363414474E-01  4.750270655831E-01  3.073700128923E-01
C30 -3.282363414474E-01 -4.750270655831E-01 -3.073700128923E-01
C31  2.536187291840E-01  4.121676864263E-01  2.434602319832E-01
C32 -2.536187291840E-01 -4.121676864263E-01 -2.434602319832E-01
C33 -4.803246637831E-01  4.195889961851E-01  2.892424324375E-01
C34  4.803246637831E-01 -4.195889961851E-01 -2.892424324375E-01
C35  3.759627565910E-01 -2.261503084514E-01  3.913124629218E-01
C36 -3.759627565910E-01  2.261503084514E-01 -3.913124629218E-01
C37  3.246221228750E-01 -2.885029624235E-01  4.785207957340E-01
C38 -3.246221228750E-01  2.885029624235E-01 -4.785207957340E-01
C39  3.642075993463E-01 -4.726009824573E-02  3.901360468821E-01
C40 -3.642075993463E-01  4.726009824573E-02 -3.901360468821E-01
C41  2.495437388813E-02 -2.421163170638E-01  3.391799600351E-01
C42 -2.495437388813E-02  2.421163170638E-01 -3.391799600351E-01
C43 -6.941990350597E-02 -3.290238973769E-01  4.118318523764E-01
C44  6.941990350597E-02  3.290238973769E-01 -4.118318523764E-01
C45 -3.830447821510E-02 -6.422891576836E-02  3.459111802892E-01
C46  3.830447821510E-02  6.422891576836E-02 -3.459111802892E-01
H47  1.157735749421E-01 -6.538996542715E-04  1.398728540510E-01
H48 -1.157735749421E-01  6.538996542715E-04 -1.398728540510E-01
H49 -1.769892729457E-01  1.302180061421E-01  1.485942866724E-01
H50  1.769892729457E-01 -1.302180061421E-01 -1.485942866724E-01
H51 -3.813951625958E-01  3.105624726986E-01  8.968369307412E-02
H52  3.813951625958E-01 -3.105624726986E-01 -8.968369307412E-02
H53 -2.869007098974E-01  4.530526847099E-01 -3.900938913424E-02
H54  2.869007098974E-01 -4.530526847099E-01  3.900938913424E-02
H55  1.123581169620E-02  4.101189041174E-01 -1.113262874991E-01
H56 -1.123581169620E-02 -4.101189041174E-01  1.113262874991E-01
H57  3.024747231603E-01  2.710561029118E-01 -1.212822707369E-01
H58 -3.024747231603E-01 -2.710561029118E-01  1.212822707369E-01
H59  2.731094624799E-01  4.272505863223E-01  3.669359018662E-01
H60 -2.731094624799E-01 -4.272505863223E-01 -3.669359018662E-01
H61  2.967970070721E-01  4.644532455918E-01  1.837977296755E-01
H62 -2.967970070721E-01 -4.644532455918E-01 -1.837977296755E-01
H63  1.161625837372E-01  4.379147595008E-01  2.589641612769E-01
H64 -1.161625837372E-01 -4.379147595008E-01 -2.589641612769E-01
H65  2.915793129650E-01  2.846928248575E-01  2.372636090683E-01
H66 -2.915793129650E-01 -2.846928248575E-01 -2.372636090683E-01
H67 -4.491850727561E-01  2.914837406714E-01  2.847593748372E-01
H68  4.491850727561E-01 -2.914837406714E-01 -2.847593748372E-01
H69 -4.255526783785E-01  4.539156363300E-01  3.366797418826E-01
H70  4.255526783785E-01 -4.539156363300E-01 -3.366797418826E-01
H71 -4.173156932320E-01  4.671377806238E-01  2.314394619440E-01
H72  4.173156932320E-01 -4.671377806238E-01 -2.314394619440E-01
H73 -4.911949139084E-01 -2.770624779168E-01  3.665011440658E-01
H74  4.911949139084E-01  2.770624779168E-01 -3.665011440658E-01
H75  4.024576484116E-01 -2.553375857374E-01 -4.837142877259E-01
H76 -4.024576484116E-01  2.553375857374E-01  4.837142877259E-01
H77  3.380220160713E-01 -4.162922448009E-01  4.807133410135E-01
H78 -3.380220160713E-01  4.162922448009E-01 -4.807133410135E-01
H79  1.939004026850E-01 -2.397471116997E-01 -4.924465340265E-01
H80 -1.939004026850E-01  2.397471116997E-01  4.924465340265E-01
H81  2.366012860036E-01  1.323784913245E-02  4.170793144992E-01
H82 -2.366012860036E-01 -1.323784913245E-02 -4.170793144992E-01
H83  4.013100158111E-01 -2.829606056874E-03  3.281983216878E-01
H84 -4.013100158111E-01  2.829606056874E-03 -3.281983216878E-01
H85  4.466812557607E-01 -1.362034167795E-02  4.252992114933E-01
H86 -4.466812557607E-01  1.362034167795E-02 -4.252992114933E-01
H87 -2.745665020162E-03 -2.808145936023E-01  2.838863174464E-01
H88  2.745665020162E-03  2.808145936023E-01 -2.838863174464E-01
H89 -3.175411685789E-02 -4.563523966958E-01  4.064980611181E-01
H90  3.175411685789E-02  4.563523966958E-01 -4.064980611181E-01
H91 -2.053336287317E-01 -3.011951645915E-01  4.168059125344E-01
H92  2.053336287317E-01  3.011951645915E-01 -4.168059125344E-01
H93 -4.813896454141E-02 -2.949160776833E-01  4.692806191395E-01
H94  4.813896454141E-02  2.949160776833E-01 -4.692806191395E-01
H95  3.035023454295E-02 -3.003183263912E-04  2.957006166306E-01
H96 -3.035023454295E-02  3.003183263912E-04 -2.957006166306E-01
H97 -2.518636473679E-02 -1.854750354274E-02  4.026029989110E-01
H98  2.518636473679E-02  1.854750354274E-02 -4.026029989110E-01
H99 -1.720076373195E-01 -3.586905361915E-02  3.457995090609E-01
H100  1.720076373195E-01  3.586905361915E-02 -3.457995090609E-01


#===END

data_OPT_STEP_51

_symmetry_space_group_name_H-M 'P 1'
_cell_length_a      8.33075528
_cell_length_b      8.67786165
_cell_length_c     16.94829760
_cell_angle_alpha   87.240335
_cell_angle_beta   75.970674
_cell_angle_gamma   79.361467

loop_
_atom_site_label
_atom_site_fract_x
_atom_site_fract_y
_atom_site_fract_z
SI1  2.660168786906E-01 -3.008159157318E-01  3.170327846474E-01
SI2 -2.660168786906E-01  3.008159157318E-01 -3.170327846474E-01
C3  4.467388495915E-01 -7.625267975652E-02  7.581629113601E-02
C4 -4.467388495915E-01  7.625267975652E-02 -7.581629113601E-02
C5  3.278034357534E-01  3.007649811425E-02  4.343515381793E-02
C6 -3.278034357534E-01 -3.007649811425E-02 -4.343515381793E-02
C7  1.564800400518E-01  6.098037717610E-02  8.358846277410E-02
C8 -1.564800400518E-01 -6.098037717610E-02 -8.358846277410E-02
C9  3.877391360558E-02  1.630484721665E-01  5.226115853162E-02
C10 -3.877391360558E-02 -1.630484721665E-01 -5.226115853162E-02
C11 -1.360979343940E-01  1.917533369073E-01  9.220083075128E-02
C12  1.360979343940E-01 -1.917533369073E-01 -9.220083075128E-02
C13 -2.489348123416E-01  2.916697319180E-01  5.949926116497E-02
C14  2.489348123416E-01 -2.916697319180E-01 -5.949926116497E-02
C15 -1.948785631088E-01  3.717163180383E-01 -1.506399950480E-02
C16  1.948785631088E-01 -3.717163180383E-01  1.506399950480E-02
C17 -3.009923327922E-02  3.476852236891E-01 -5.527203071295E-02
C18  3.009923327922E-02 -3.476852236891E-01  5.527203071295E-02
C19  9.298536029147E-02  2.419339830486E-01 -2.389608626597E-02
C20 -9.298536029147E-02 -2.419339830486E-01  2.389608626597E-02
C21  2.612280552109E-01  2.124421132528E-01 -6.407272211620E-02
C22 -2.612280552109E-01 -2.124421132528E-01  6.407272211620E-02
C23  3.818592964248E-01  1.077081474386E-01 -3.327413521524E-02
C24 -3.818592964248E-01 -1.077081474386E-01  3.327413521524E-02
C25  3.935697846286E-01 -1.506766850349E-01  1.514524810798E-01
C26 -3.935697846286E-01  1.506766850349E-01 -1.514524810798E-01
C27  3.461336794066E-01 -2.128461222652E-01  2.166949036936E-01
C28 -3.461336794066E-01  2.128461222652E-01 -2.166949036936E-01
C29  3.282811525096E-01  4.750418084709E-01  3.073549570637E-01
C30 -3.282811525096E-01 -4.750418084709E-01 -3.073549570637E-01
C31  2.536796161613E-01  4.122348422911E-01  2.434253465937E-01
C32 -2.536796161613E-01 -4.122348422911E-01 -2.434253465937E-01
C33 -4.802956933517E-01  4.195936826445E-01  2.892366618678E-01
C34  4.802956933517E-01 -4.195936826445E-01 -2.892366618678E-01
C35  3.761148024899E-01 -2.262199683348E-01  3.913557652522E-01
C36 -3.761148024899E-01  2.262199683348E-01 -3.913557652522E-01
C37  3.246433571126E-01 -2.885526572808E-01  4.785659145674E-01
C38 -3.246433571126E-01  2.885526572808E-01 -4.785659145674E-01
C39  3.645503764215E-01 -4.735035129545E-02  3.901859415826E-01
C40 -3.645503764215E-01  4.735035129545E-02 -3.901859415826E-01
C41  2.503763505227E-02 -2.420294256398E-01  3.391936906087E-01
C42 -2.503763505227E-02  2.420294256398E-01 -3.391936906087E-01
C43 -6.939461807463E-02 -3.289327314519E-01  4.118277412228E-01
C44  6.939461807463E-02  3.289327314519E-01 -4.118277412228E-01
C45 -3.808285263439E-02 -6.414319845065E-02  3.459559680735E-01
C46  3.808285263439E-02  6.414319845065E-02 -3.459559680735E-01
H47  1.158282555737E-01 -4.689193785030E-04  1.399327984050E-01
H48 -1.158282555737E-01  4.689193785030E-04 -1.399327984050E-01
H49 -1.769931437651E-01  1.301963122418E-01  1.486069033080E-01
H50  1.769931437651E-01 -1.301963122418E-01 -1.486069033080E-01
H51 -3.814076779819E-01  3.104365220586E-01  8.965873268943E-02
H52  3.814076779819E-01 -3.104365220586E-01 -8.965873268943E-02
H53 -2.868634057315E-01  4.529392156862E-01 -3.901824003913E-02
H54  2.868634057315E-01 -4.529392156862E-01  3.901824003913E-02
H55  1.129636515623E-02  4.100523351125E-01 -1.113457309078E-01
H56 -1.129636515623E-02 -4.100523351125E-01  1.113457309078E-01
H57  3.025255500940E-01  2.709974426702E-01 -1.213207378105E-01
H58 -3.025255500940E-01 -2.709974426702E-01  1.213207378105E-01
H59  2.731350500027E-01  4.271975552206E-01  3.669020274602E-01
H60 -2.731350500027E-01 -4.271975552206E-01 -3.669020274602E-01
H61  2.968657969948E-01  4.645790475238E-01  1.837762591209E-01
H62 -2.968657969948E-01 -4.645790475238E-01 -1.837762591209E-01
H63  1.162310910502E-01  4.379568472672E-01  2.589266622133E-01
H64 -1.162310910502E-01 -4.379568472672E-01 -2.589266622133E-01
H65  2.916405581798E-01  2.847660374877E-01  2.372031168578E-01
H66 -2.916405581798E-01 -2.847660374877E-01 -2.372031168578E-01
H67 -4.491922146205E-01  2.914906335789E-01  2.847131515465E-01
H68  4.491922146205E-01 -2.914906335789E-01 -2.847131515465E-01
H69 -4.255434440726E-01  4.538339795678E-01  3.366987400041E-01
H70  4.255434440726E-01 -4.538339795678E-01 -3.366987400041E-01
H71 -4.172497953775E-01  4.672190115618E-01  2.314572670029E-01
H72  4.172497953775E-01 -4.672190115618E-01 -2.314572670029E-01
H73 -4.910898366020E-01 -2.772181017084E-01  3.665573899438E-01
H74  4.910898366020E-01  2.772181017084E-01 -3.665573899438E-01
H75  4.025808004414E-01 -2.556199890497E-01 -4.836458303822E-01
H76 -4.025808004414E-01  2.556199890497E-01  4.836458303822E-01
H77  3.377046455215E-01 -4.163205482454E-01  4.807565741346E-01
H78 -3.377046455215E-01  4.163205482454E-01 -4.807565741346E-01
H79  1.940180023721E-01 -2.395707778842E-01 -4.924025145435E-01
H80 -1.940180023721E-01  2.395707778842E-01  4.924025145435E-01
H81  2.370025430003E-01  1.322310404796E-02  4.171278374598E-01
H82 -2.370025430003E-01 -1.322310404796E-02 -4.171278374598E-01
H83  4.016967686359E-01 -2.949407577452E-03  3.282413040220E-01
H84 -4.016967686359E-01  2.949407577452E-03 -3.282413040220E-01
H85  4.470672787653E-01 -1.377119931359E-02  4.253589044069E-01
H86 -4.470672787653E-01  1.377119931359E-02 -4.253589044069E-01
H87 -2.701791143101E-03 -2.806852863199E-01  2.839081974139E-01
H88  2.701791143101E-03  2.806852863199E-01 -2.839081974139E-01
H89 -3.178992733074E-02 -4.562182862502E-01  4.064786074823E-01
H90  3.178992733074E-02  4.562182862502E-01 -4.064786074823E-01
H91 -2.053064354515E-01 -3.010752021077E-01  4.168390181995E-01
H92  2.053064354515E-01  3.010752021077E-01 -4.168390181995E-01
H93 -4.807314918140E-02 -2.948970284706E-01  4.692656190503E-01
H94  4.807314918140E-02  2.948970284706E-01 -4.692656190503E-01
H95  3.049986330140E-02 -2.932002510923E-04  2.957097966593E-01
H96 -3.049986330140E-02  2.932002510923E-04 -2.957097966593E-01
H97 -2.472296866756E-02 -1.846557971822E-02  4.026112796723E-01
H98  2.472296866756E-02  1.846557971822E-02 -4.026112796723E-01
H99 -1.718350018690E-01 -3.570893343588E-02  3.459362212341E-01
H100  1.718350018690E-01  3.570893343588E-02 -3.459362212341E-01


#===END

data_OPT_STEP_52

_symmetry_space_group_name_H-M 'P 1'
_cell_length_a      8.32921824
_cell_length_b      8.67729842
_cell_length_c     16.94762209
_cell_angle_alpha   87.241866
_cell_angle_beta   75.983026
_cell_angle_gamma   79.396126

loop_
_atom_site_label
_atom_site_fract_x
_atom_site_fract_y
_atom_site_fract_z
SI1  2.662155920924E-01 -3.007351923345E-01  3.170860154916E-01
SI2 -2.662155920924E-01  3.007351923345E-01 -3.170860154916E-01
C3  4.467452533350E-01 -7.615706319621E-02  7.585221302407E-02
C4 -4.467452533350E-01  7.615706319621E-02 -7.585221302407E-02
C5  3.278443265453E-01  3.016086502741E-02  4.346213290191E-02
C6 -3.278443265453E-01 -3.016086502741E-02 -4.346213290191E-02
C7  1.565303415189E-01  6.110155170813E-02  8.363410640155E-02
C8 -1.565303415189E-01 -6.110155170813E-02 -8.363410640155E-02
C9  3.883944879907E-02  1.631099221657E-01  5.228939986248E-02
C10 -3.883944879907E-02 -1.631099221657E-01 -5.228939986248E-02
C11 -1.360252725195E-01  1.917785408429E-01  9.223113837482E-02
C12  1.360252725195E-01 -1.917785408429E-01 -9.223113837482E-02
C13 -2.488547910215E-01  2.916135639360E-01  5.950638312318E-02
C14  2.488547910215E-01 -2.916135639360E-01 -5.950638312318E-02
C15 -1.947860218722E-01  3.716472439494E-01 -1.506997578702E-02
C16  1.947860218722E-01 -3.716472439494E-01  1.506997578702E-02
C17 -3.001470890352E-02  3.476422710278E-01 -5.528104030974E-02
C18  3.001470890352E-02 -3.476422710278E-01  5.528104030974E-02
C19  9.305669655921E-02  2.419447498600E-01 -2.389238013381E-02
C20 -9.305669655921E-02 -2.419447498600E-01  2.389238013381E-02
C21  2.612713681131E-01  2.123830230554E-01 -6.409562259592E-02
C22 -2.612713681131E-01 -2.123830230554E-01  6.409562259592E-02
C23  3.818845181671E-01  1.076819894219E-01 -3.328788606733E-02
C24 -3.818845181671E-01 -1.076819894219E-01  3.328788606733E-02
C25  3.935828654618E-01 -1.505001954985E-01  1.515154460163E-01
C26 -3.935828654618E-01  1.505001954985E-01 -1.515154460163E-01
C27  3.463647236545E-01 -2.127018924601E-01  2.167743258871E-01
C28 -3.463647236545E-01  2.127018924601E-01 -2.167743258871E-01
C29  3.283317278315E-01  4.751422669125E-01  3.073718338617E-01
C30 -3.283317278315E-01 -4.751422669125E-01 -3.073718338617E-01
C31  2.535986523142E-01  4.124046446701E-01  2.434502281291E-01
C32 -2.535986523142E-01 -4.124046446701E-01 -2.434502281291E-01
C33 -4.802578157376E-01  4.196935881450E-01  2.892163428726E-01
C34  4.802578157376E-01 -4.196935881450E-01 -2.892163428726E-01
C35  3.764582109013E-01 -2.263238019406E-01  3.914362639301E-01
C36 -3.764582109013E-01  2.263238019406E-01 -3.914362639301E-01
C37  3.247078769858E-01 -2.886001680838E-01  4.786487571561E-01
C38 -3.247078769858E-01  2.886001680838E-01 -4.786487571561E-01
C39  3.653061541364E-01 -4.750563952976E-02  3.902450593568E-01
C40 -3.653061541364E-01  4.750563952976E-02 -3.902450593568E-01
C41  2.523850315272E-02 -2.418833506633E-01  3.392525153433E-01
C42 -2.523850315272E-02  2.418833506633E-01 -3.392525153433E-01
C43 -6.924729919385E-02 -3.288654180598E-01  4.118457793305E-01
C44  6.924729919385E-02  3.288654180598E-01 -4.118457793305E-01
C45 -3.767428928368E-02 -6.400684770201E-02  3.461020524174E-01
C46  3.767428928368E-02  6.400684770201E-02 -3.461020524174E-01
H47  1.158659266927E-01 -2.564256829181E-04  1.400128540122E-01
H48 -1.158659266927E-01  2.564256829180E-04 -1.400128540122E-01
H49 -1.769249182088E-01  1.302419420090E-01  1.486452061052E-01
H50  1.769249182088E-01 -1.302419420090E-01 -1.486452061052E-01
H51 -3.813216313244E-01  3.103475902434E-01  8.964610279183E-02
H52  3.813216313244E-01 -3.103475902434E-01 -8.964610279183E-02
H53 -2.867626278806E-01  4.528373309290E-01 -3.903076742935E-02
H54  2.867626278806E-01 -4.528373309290E-01  3.903076742935E-02
H55  1.136920675028E-02  4.099807068776E-01 -1.113669436893E-01
H56 -1.136920675028E-02 -4.099807068776E-01  1.113669436893E-01
H57  3.025573790553E-01  2.708791448679E-01 -1.213729661932E-01
H58 -3.025573790553E-01 -2.708791448679E-01  1.213729661932E-01
H59  2.732184318058E-01  4.272446666652E-01  3.669132492023E-01
H60 -2.732184318058E-01 -4.272446666652E-01 -3.669132492023E-01
H61  2.966960583881E-01  4.648298491836E-01  1.838126866616E-01
H62 -2.966960583881E-01 -4.648298491836E-01 -1.838126866616E-01
H63  1.161633387235E-01  4.380618734313E-01  2.589918373257E-01
H64 -1.161633387235E-01 -4.380618734313E-01 -2.589918373257E-01
H65  2.915485657366E-01  2.849704817531E-01  2.371836695888E-01
H66 -2.915485657366E-01 -2.849704817531E-01 -2.371836695888E-01
H67 -4.492313156098E-01  2.916041234580E-01  2.846781506610E-01
H68  4.492313156098E-01 -2.916041234580E-01 -2.846781506610E-01
H69 -4.254182820370E-01  4.539075737136E-01  3.366678644273E-01
H70  4.254182820370E-01 -4.539075737136E-01 -3.366678644273E-01
H71 -4.172320526632E-01  4.673281693234E-01  2.314315154175E-01
H72  4.172320526632E-01 -4.673281693234E-01 -2.314315154175E-01
H73 -4.908123468451E-01 -2.775153639304E-01  3.666776656819E-01
H74  4.908123468451E-01  2.775153639304E-01 -3.666776656819E-01
H75  4.029040652036E-01 -2.561153188782E-01 -4.835413185574E-01
H76 -4.029040652036E-01  2.561153188782E-01  4.835413185574E-01
H77  3.370881207296E-01 -4.163427500965E-01  4.808484522234E-01
H78 -3.370881207296E-01  4.163427500965E-01 -4.808484522234E-01
H79  1.942208271645E-01 -2.391364915674E-01 -4.923282868496E-01
H80 -1.942208271645E-01  2.391364915674E-01  4.923282868496E-01
H81  2.378474641349E-01  1.323239142179E-02  4.171559464259E-01
H82 -2.378474641349E-01 -1.323239142179E-02 -4.171559464259E-01
H83  4.026004529570E-01 -3.156172385680E-03  3.282912370511E-01
H84 -4.026004529570E-01  3.156172385680E-03 -3.282912370511E-01
H85  4.479136614502E-01 -1.408344445653E-02  4.254415889480E-01
H86 -4.479136614502E-01  1.408344445653E-02 -4.254415889480E-01
H87 -2.614121005180E-03 -2.803978734990E-01  2.839633001722E-01
H88  2.614121005180E-03  2.803978734990E-01 -2.839633001722E-01
H89 -3.193678395774E-02 -4.561595526228E-01  4.063741442303E-01
H90  3.193678395774E-02  4.561595526228E-01 -4.063741442303E-01
H91 -2.051945081601E-01 -3.007710331700E-01  4.169504315422E-01
H92  2.051945081601E-01  3.007710331700E-01 -4.169504315422E-01
H93 -4.762069426697E-02 -2.951535554604E-01  4.692855300137E-01
H94  4.762069426697E-02  2.951535554604E-01 -4.692855300137E-01
H95  3.080431027278E-02 -1.801511569115E-04  2.958219536336E-01
H96 -3.080431027278E-02  1.801511569115E-04 -2.958219536336E-01
H97 -2.396359683443E-02 -1.842328276301E-02  4.027249891107E-01
H98  2.396359683443E-02  1.842328276301E-02 -4.027249891107E-01
H99 -1.714957237584E-01 -3.547318895007E-02  3.462106006354E-01
H100  1.714957237584E-01  3.547318895007E-02 -3.462106006354E-01


#===END

data_OPT_STEP_53

_symmetry_space_group_name_H-M 'P 1'
_cell_length_a      8.32655613
_cell_length_b      8.67633380
_cell_length_c     16.94672229
_cell_angle_alpha   87.240726
_cell_angle_beta   76.008079
_cell_angle_gamma   79.446534

loop_
_atom_site_label
_atom_site_fract_x
_atom_site_fract_y
_atom_site_fract_z
SI1  2.666793654293E-01 -3.005983717265E-01  3.172036465032E-01
SI2 -2.666793654293E-01  3.005983717265E-01 -3.172036465032E-01
C3  4.467808677635E-01 -7.598371240872E-02  7.591146831798E-02
C4 -4.467808677635E-01  7.598371240872E-02 -7.591146831798E-02
C5  3.278908317820E-01  3.028186118550E-02  4.350572853218E-02
C6 -3.278908317820E-01 -3.028186118550E-02 -4.350572853218E-02
C7  1.565927620174E-01  6.129546508540E-02  8.371408118655E-02
C8 -1.565927620174E-01 -6.129546508540E-02 -8.371408118655E-02
C9  3.891878249800E-02  1.632339154102E-01  5.234173495991E-02
C10 -3.891878249800E-02 -1.632339154102E-01 -5.234173495991E-02
C11 -1.359355437778E-01  1.918899780474E-01  9.229182075386E-02
C12  1.359355437778E-01 -1.918899780474E-01 -9.229182075386E-02
C13 -2.487512410353E-01  2.916130014340E-01  5.952238323492E-02
C14  2.487512410353E-01 -2.916130014340E-01 -5.952238323492E-02
C15 -1.946768365808E-01  3.715695052782E-01 -1.509105611255E-02
C16  1.946768365808E-01 -3.715695052782E-01  1.509105611255E-02
C17 -2.991661513488E-02  3.475771958392E-01 -5.530885905311E-02
C18  2.991661513488E-02 -3.475771958392E-01  5.530885905311E-02
C19  9.313143934289E-02  2.419524409005E-01 -2.389161271072E-02
C20 -9.313143934289E-02 -2.419524409005E-01  2.389161271072E-02
C21  2.613024703032E-01  2.122838988951E-01 -6.413294343163E-02
C22 -2.613024703032E-01 -2.122838988951E-01  6.413294343163E-02
C23  3.818896778619E-01  1.076204848138E-01 -3.330983431681E-02
C24 -3.818896778619E-01 -1.076204848138E-01  3.330983431681E-02
C25  3.936799854155E-01 -1.501818349213E-01  1.516214074918E-01
C26 -3.936799854155E-01  1.501818349213E-01 -1.516214074918E-01
C27  3.468593493505E-01 -2.124362271363E-01  2.169198527751E-01
C28 -3.468593493505E-01  2.124362271363E-01 -2.169198527751E-01
C29  3.283925879172E-01  4.752811411309E-01  3.073964385772E-01
C30 -3.283925879172E-01 -4.752811411309E-01 -3.073964385772E-01
C31  2.534246779371E-01  4.128211702614E-01  2.434474568492E-01
C32 -2.534246779371E-01 -4.128211702614E-01 -2.434474568492E-01
C33 -4.802241010749E-01  4.196715964417E-01  2.892235173585E-01
C34  4.802241010749E-01 -4.196715964417E-01 -2.892235173585E-01
C35  3.772709708097E-01 -2.266117364565E-01  3.915950723828E-01
C36 -3.772709708097E-01  2.266117364565E-01 -3.915950723828E-01
C37  3.250939356184E-01 -2.888203714602E-01  4.787990329089E-01
C38 -3.250939356184E-01  2.888203714602E-01 -4.787990329089E-01
C39  3.669002811628E-01 -4.786034630102E-02  3.903830581967E-01
C40 -3.669002811628E-01  4.786034630102E-02 -3.903830581967E-01
C41  2.572107056427E-02 -2.414898773194E-01  3.394211418717E-01
C42 -2.572107056427E-02  2.414898773194E-01 -3.394211418717E-01
C43 -6.883722944720E-02 -3.285624676880E-01  4.119596428835E-01
C44  6.883722944720E-02  3.285624676880E-01 -4.119596428835E-01
C45 -3.676926042324E-02 -6.358865843576E-02  3.464289055043E-01
C46  3.676926042324E-02  6.358865843576E-02 -3.464289055043E-01
H47  1.159277427141E-01  1.089625930692E-04  1.401599876850E-01
H48 -1.159277427141E-01 -1.089625930692E-04 -1.401599876850E-01
H49 -1.768435748729E-01  1.304050030173E-01  1.487300670630E-01
H50  1.768435748729E-01 -1.304050030173E-01 -1.487300670630E-01
H51 -3.812253621845E-01  3.102888666441E-01  8.962686388324E-02
H52  3.812253621845E-01 -3.102888666441E-01 -8.962686388324E-02
H53 -2.866599749639E-01  4.526716523579E-01 -3.907430802341E-02
H54  2.866599749639E-01 -4.526716523579E-01  3.907430802341E-02
H55  1.144430351058E-02  4.098349779886E-01 -1.114281556573E-01
H56 -1.144430351058E-02 -4.098349779886E-01  1.114281556573E-01
H57  3.025692818783E-01  2.706620837277E-01 -1.214657934975E-01
H58 -3.025692818783E-01 -2.706620837277E-01  1.214657934975E-01
H59  2.732305282800E-01  4.272792506639E-01  3.669097555251E-01
H60 -2.732305282800E-01 -4.272792506639E-01 -3.669097555251E-01
H61  2.965303079537E-01  4.653893847717E-01  1.838421604721E-01
H62 -2.965303079537E-01 -4.653893847717E-01 -1.838421604721E-01
H63  1.159918533432E-01  4.385371435944E-01  2.590082965055E-01
H64 -1.159918533432E-01 -4.385371435944E-01 -2.590082965055E-01
H65  2.912073504304E-01  2.854029510617E-01  2.371090732299E-01
H66 -2.912073504304E-01 -2.854029510617E-01 -2.371090732299E-01
H67 -4.494328191175E-01  2.915810660641E-01  2.845750086022E-01
H68  4.494328191175E-01 -2.915810660641E-01 -2.845750086022E-01
H69 -4.252420648312E-01  4.535749656020E-01  3.367151248777E-01
H70  4.252420648312E-01 -4.535749656020E-01 -3.367151248777E-01
H71 -4.171266506279E-01  4.674797687441E-01  2.314892576554E-01
H72  4.171266506279E-01 -4.674797687441E-01 -2.314892576554E-01
H73 -4.901133518298E-01 -2.781669307835E-01  3.669005289784E-01
H74  4.901133518298E-01  2.781669307835E-01 -3.669005289784E-01
H75  4.035468873993E-01 -2.569448112255E-01 -4.833313555850E-01
H76 -4.035468873993E-01  2.569448112255E-01  4.833313555850E-01
H77  3.366260742609E-01 -4.164548299020E-01  4.810108369142E-01
H78 -3.366260742609E-01  4.164548299020E-01 -4.810108369142E-01
H79  1.948188285844E-01 -2.387991941337E-01 -4.922346292488E-01
H80 -1.948188285844E-01  2.387991941337E-01  4.922346292488E-01
H81  2.395843522859E-01  1.322610150599E-02  4.172097654356E-01
H82 -2.395843522859E-01 -1.322610150599E-02 -4.172097654356E-01
H83  4.045307773942E-01 -3.559813633528E-03  3.284326527363E-01
H84 -4.045307773942E-01  3.559813633528E-03 -3.284326527363E-01
H85  4.496265020787E-01 -1.477231818038E-02  4.256473202678E-01
H86 -4.496265020787E-01  1.477231818038E-02 -4.256473202678E-01
H87 -2.399282802232E-03 -2.797160858106E-01  2.841242179667E-01
H88  2.399282802232E-03  2.797160858106E-01 -2.841242179667E-01
H89 -3.186014794131E-02 -4.557970021706E-01  4.063533337647E-01
H90  3.186014794131E-02  4.557970021706E-01 -4.063533337647E-01
H91 -2.047992540364E-01 -3.002297603538E-01  4.171681047173E-01
H92  2.047992540364E-01  3.002297603538E-01 -4.171681047173E-01
H93 -4.690044443012E-02 -2.952448544997E-01  4.693924507835E-01
H94  4.690044443012E-02  2.952448544997E-01 -4.693924507835E-01
H95  3.164371889169E-02  2.699760592020E-04  2.961373019247E-01
H96 -3.164371889169E-02 -2.699760592020E-04 -2.961373019247E-01
H97 -2.256566546217E-02 -1.826020008071E-02  4.030296591042E-01
H98  2.256566546217E-02  1.826020008071E-02 -4.030296591042E-01
H99 -1.706727063989E-01 -3.481920782579E-02  3.466936501498E-01
H100  1.706727063989E-01  3.481920782579E-02 -3.466936501498E-01


#===END

data_OPT_STEP_54

_symmetry_space_group_name_H-M 'P 1'
_cell_length_a      8.32456028
_cell_length_b      8.67555396
_cell_length_c     16.94258912
_cell_angle_alpha   87.251748
_cell_angle_beta   76.042882
_cell_angle_gamma   79.506224

loop_
_atom_site_label
_atom_site_fract_x
_atom_site_fract_y
_atom_site_fract_z
SI1  2.670919944011E-01 -3.005891261939E-01  3.173104966062E-01
SI2 -2.670919944011E-01  3.005891261939E-01 -3.173104966062E-01
C3  4.468238912283E-01 -7.586560115291E-02  7.596978961290E-02
C4 -4.468238912283E-01  7.586560115291E-02 -7.596978961290E-02
C5  3.279800051996E-01  3.037967820354E-02  4.355316274674E-02
C6 -3.279800051996E-01 -3.037967820354E-02 -4.355316274674E-02
C7  1.567722980857E-01  6.149599569135E-02  8.380908502068E-02
C8 -1.567722980857E-01 -6.149599569135E-02 -8.380908502068E-02
C9  3.909882870925E-02  1.633383914531E-01  5.241028921765E-02
C10 -3.909882870925E-02 -1.633383914531E-01 -5.241028921765E-02
C11 -1.357004242409E-01  1.919897639498E-01  9.237610304599E-02
C12  1.357004242409E-01 -1.919897639498E-01 -9.237610304599E-02
C13 -2.485310487435E-01  2.915511554912E-01  5.955549479098E-02
C14  2.485310487435E-01 -2.915511554912E-01 -5.955549479098E-02
C15 -1.945186488114E-01  3.713898794381E-01 -1.511051190684E-02
C16  1.945186488114E-01 -3.713898794381E-01  1.511051190684E-02
C17 -2.980617313660E-02  3.474277598046E-01 -5.533542828472E-02
C18  2.980617313660E-02 -3.474277598046E-01  5.533542828472E-02
C19  9.323808122962E-02  2.419108312394E-01 -2.388446593737E-02
C20 -9.323808122962E-02 -2.419108312394E-01  2.388446593737E-02
C21  2.613441321174E-01  2.121969291650E-01 -6.415804075166E-02
C22 -2.613441321174E-01 -2.121969291650E-01  6.415804075166E-02
C23  3.819213419425E-01  1.075998407463E-01 -3.332148541187E-02
C24 -3.819213419425E-01 -1.075998407463E-01  3.332148541187E-02
C25  3.937702082565E-01 -1.500109790839E-01  1.517128255982E-01
C26 -3.937702082565E-01  1.500109790839E-01 -1.517128255982E-01
C27  3.473098365031E-01 -2.123433141034E-01  2.170354075375E-01
C28 -3.473098365031E-01  2.123433141034E-01 -2.170354075375E-01
C29  3.283602000215E-01  4.753194362056E-01  3.074213392016E-01
C30 -3.283602000215E-01 -4.753194362056E-01 -3.074213392016E-01
C31  2.531528184768E-01  4.130987687018E-01  2.434297626830E-01
C32 -2.531528184768E-01 -4.130987687018E-01 -2.434297626830E-01
C33 -4.803170739045E-01  4.196061731756E-01  2.892320805791E-01
C34  4.803170739045E-01 -4.196061731756E-01 -2.892320805791E-01
C35  3.780136066499E-01 -2.269776807226E-01  3.917578361918E-01
C36 -3.780136066499E-01  2.269776807226E-01 -3.917578361918E-01
C37  3.253884385571E-01 -2.890278656599E-01  4.789760967399E-01
C38 -3.253884385571E-01  2.890278656599E-01 -4.789760967399E-01
C39  3.684265084234E-01 -4.834203768512E-02  3.905097782221E-01
C40 -3.684265084234E-01  4.834203768512E-02 -3.905097782221E-01
C41  2.619539941381E-02 -2.412375846907E-01  3.395653369950E-01
C42 -2.619539941381E-02  2.412375846907E-01 -3.395653369950E-01
C43 -6.848564172581E-02 -3.284346273335E-01  4.120351865883E-01
C44  6.848564172581E-02  3.284346273335E-01 -4.120351865883E-01
C45 -3.583115280517E-02 -6.333996372229E-02  3.467327892012E-01
C46  3.583115280517E-02  6.333996372229E-02 -3.467327892012E-01
H47  1.161488969942E-01  4.486410221273E-04  1.403184541043E-01
H48 -1.161488969942E-01 -4.486410221274E-04 -1.403184541043E-01
H49 -1.765625448343E-01  1.306083974234E-01  1.488557378060E-01
H50  1.765625448343E-01 -1.306083974234E-01 -1.488557378060E-01
H51 -3.809685783590E-01  3.101985658620E-01  8.964587853786E-02
H52  3.809685783590E-01 -3.101985658620E-01 -8.964587853786E-02
H53 -2.865035493653E-01  4.524003049274E-01 -3.912380632809E-02
H54  2.865035493653E-01 -4.524003049274E-01  3.912380632809E-02
H55  1.150344659606E-02  4.096123995199E-01 -1.114935550752E-01
H56 -1.150344659606E-02 -4.096123995199E-01  1.114935550752E-01
H57  3.025548010928E-01  2.704437557192E-01 -1.215478808389E-01
H58 -3.025548010928E-01 -2.704437557192E-01  1.215478808389E-01
H59  2.731711522718E-01  4.272415466680E-01  3.669174735092E-01
H60 -2.731711522718E-01 -4.272415466680E-01 -3.669174735092E-01
H61  2.962858386429E-01  4.657638389239E-01  1.838451479859E-01
H62 -2.962858386429E-01 -4.657638389239E-01 -1.838451479859E-01
H63  1.157380934687E-01  4.388824365437E-01  2.589951665763E-01
H64 -1.157380934687E-01 -4.388824365437E-01 -2.589951665763E-01
H65  2.907199910099E-01  2.857049297306E-01  2.370353985861E-01
H66 -2.907199910099E-01 -2.857049297306E-01 -2.370353985861E-01
H67 -4.497479707140E-01  2.915422477350E-01  2.845083004757E-01
H68  4.497479707140E-01 -2.915422477350E-01 -2.845083004757E-01
H69 -4.251852319380E-01  4.533085389536E-01  3.367564354104E-01
H70  4.251852319380E-01 -4.533085389536E-01 -3.367564354104E-01
H71 -4.171884375733E-01  4.675105583974E-01  2.315245312532E-01
H72  4.171884375733E-01 -4.675105583974E-01 -2.315245312532E-01
H73 -4.895113170513E-01 -2.788719676917E-01  3.671416710816E-01
H74  4.895113170513E-01  2.788719676917E-01 -3.671416710816E-01
H75  4.042438723367E-01 -2.577831122473E-01 -4.831231101584E-01
H76 -4.042438723367E-01  2.577831122473E-01  4.831231101584E-01
H77  3.358645280303E-01 -4.166034704187E-01  4.812164600999E-01
H78 -3.358645280303E-01  4.166034704187E-01 -4.812164600999E-01
H79  1.953508975561E-01 -2.382871538003E-01 -4.920848902179E-01
H80 -1.953508975561E-01  2.382871538003E-01  4.920848902179E-01
H81  2.413094046180E-01  1.302787521160E-02  4.172883239479E-01
H82 -2.413094046180E-01 -1.302787521160E-02 -4.172883239479E-01
H83  4.062581965687E-01 -4.142845151481E-03  3.285488346723E-01
H84 -4.062581965687E-01  4.142845151481E-03 -3.285488346723E-01
H85  4.513496116532E-01 -1.554553274709E-02  4.258136209325E-01
H86 -4.513496116532E-01  1.554553274709E-02 -4.258136209325E-01
H87 -2.171356829549E-03 -2.791349460713E-01  2.842288280527E-01
H88  2.171356829549E-03  2.791349460713E-01 -2.842288280527E-01
H89 -3.209070495117E-02 -4.556755721290E-01  4.062159679218E-01
H90  3.209070495117E-02  4.556755721290E-01 -4.062159679218E-01
H91 -2.044738204341E-01 -2.996292198078E-01  4.173742878984E-01
H92  2.044738204341E-01  2.996292198078E-01 -4.173742878984E-01
H93 -4.602582017657E-02 -2.957043764384E-01  4.694918403838E-01
H94  4.602582017657E-02  2.957043764384E-01 -4.694918403838E-01
H95  3.262452169171E-02  6.018231373426E-04  2.964726382999E-01
H96 -3.262452169171E-02 -6.018231373426E-04 -2.964726382999E-01
H97 -2.127990089376E-02 -1.832361708925E-02  4.033554769439E-01
H98  2.127990089376E-02  1.832361708925E-02 -4.033554769439E-01
H99 -1.697531933755E-01 -3.435191474611E-02  3.470706854983E-01
H100  1.697531933755E-01  3.435191474611E-02 -3.470706854983E-01


#===END

data_OPT_STEP_55

_symmetry_space_group_name_H-M 'P 1'
_cell_length_a      8.32338052
_cell_length_b      8.67468936
_cell_length_c     16.93488567
_cell_angle_alpha   87.242028
_cell_angle_beta   76.100791
_cell_angle_gamma   79.569737

loop_
_atom_site_label
_atom_site_fract_x
_atom_site_fract_y
_atom_site_fract_z
SI1  2.680865225277E-01 -3.005684772476E-01  3.175313144902E-01
SI2 -2.680865225277E-01  3.005684772476E-01 -3.175313144902E-01
C3  4.469668626692E-01 -7.579099605815E-02  7.604045866138E-02
C4 -4.469668626692E-01  7.579099605815E-02 -7.604045866138E-02
C5  3.281164838872E-01  3.040690802063E-02  4.360655709898E-02
C6 -3.281164838872E-01 -3.040690802063E-02 -4.360655709898E-02
C7  1.570361950771E-01  6.153696696722E-02  8.391443989072E-02
C8 -1.570361950771E-01 -6.153696696722E-02 -8.391443989072E-02
C9  3.934438867940E-02  1.632986543565E-01  5.248456828905E-02
C10 -3.934438867940E-02 -1.632986543565E-01 -5.248456828905E-02
C11 -1.353406128002E-01  1.919010716149E-01  9.246717934413E-02
C12  1.353406128002E-01 -1.919010716149E-01 -9.246717934413E-02
C13 -2.481765546901E-01  2.913560450512E-01  5.958980341765E-02
C14  2.481765546901E-01 -2.913560450512E-01 -5.958980341765E-02
C15 -1.942835544092E-01  3.711534896196E-01 -1.514110563337E-02
C16  1.942835544092E-01 -3.711534896196E-01  1.514110563337E-02
C17 -2.968581549931E-02  3.472437853647E-01 -5.537581840651E-02
C18  2.968581549931E-02 -3.472437853647E-01  5.537581840651E-02
C19  9.335591235460E-02  2.418215999160E-01 -2.387959179220E-02
C20 -9.335591235460E-02 -2.418215999160E-01  2.387959179220E-02
C21  2.613462582596E-01  2.121389258884E-01 -6.418554022099E-02
C22 -2.613462582596E-01 -2.121389258884E-01  6.418554022099E-02
C23  3.819105818720E-01  1.075558508050E-01 -3.333860139246E-02
C24 -3.819105818720E-01 -1.075558508050E-01  3.333860139246E-02
C25  3.941135221738E-01 -1.498545353027E-01  1.518503446713E-01
C26 -3.941135221738E-01  1.498545353027E-01 -1.518503446713E-01
C27  3.481908909287E-01 -2.122543573371E-01  2.172292253929E-01
C28 -3.481908909287E-01  2.122543573371E-01 -2.172292253929E-01
C29  3.284744575921E-01  4.753697741390E-01  3.075250956458E-01
C30 -3.284744575921E-01 -4.753697741390E-01 -3.075250956458E-01
C31  2.525166713972E-01  4.136327159791E-01  2.435892253905E-01
C32 -2.525166713972E-01 -4.136327159791E-01 -2.435892253905E-01
C33 -4.803414034376E-01  4.193294992773E-01  2.891258373750E-01
C34  4.803414034376E-01 -4.193294992773E-01 -2.891258373750E-01
C35  3.797235689907E-01 -2.277267906804E-01  3.919968616832E-01
C36 -3.797235689907E-01  2.277267906804E-01 -3.919968616832E-01
C37  3.263876356907E-01 -2.894399314723E-01  4.792763461373E-01
C38 -3.263876356907E-01  2.894399314723E-01 -4.792763461373E-01
C39  3.716925176268E-01 -4.922902926355E-02  3.905924311395E-01
C40 -3.716925176268E-01  4.922902926355E-02 -3.905924311395E-01
C41  2.733642187334E-02 -2.405698871794E-01  3.399343122943E-01
C42 -2.733642187334E-02  2.405698871794E-01 -3.399343122943E-01
C43 -6.750288432731E-02 -3.280089873949E-01  4.122999486852E-01
C44  6.750288432731E-02  3.280089873949E-01 -4.122999486852E-01
C45 -3.382611084686E-02 -6.262106207177E-02  3.473952790951E-01
C46  3.382611084686E-02  6.262106207177E-02 -3.473952790951E-01
H47  1.165152636766E-01  5.551677621281E-04  1.404929212437E-01
H48 -1.165152636766E-01 -5.551677621281E-04 -1.404929212437E-01
H49 -1.761111058661E-01  1.305674474498E-01  1.490013949222E-01
H50  1.761111058661E-01 -1.305674474498E-01 -1.490013949222E-01
H51 -3.805514204434E-01  3.099008873434E-01  8.966605670018E-02
H52  3.805514204434E-01 -3.099008873434E-01 -8.966605670018E-02
H53 -2.862659074327E-01  4.520635871310E-01 -3.920777957393E-02
H54  2.862659074327E-01 -4.520635871310E-01  3.920777957393E-02
H55  1.154052254817E-02  4.094014903520E-01 -1.115843827775E-01
H56 -1.154052254817E-02 -4.094014903520E-01  1.115843827775E-01
H57  3.024446398890E-01  2.702910989554E-01 -1.216410895309E-01
H58 -3.024446398890E-01 -2.702910989554E-01  1.216410895309E-01
H59  2.734798223029E-01  4.272233313735E-01  3.670433390413E-01
H60 -2.734798223029E-01 -4.272233313735E-01 -3.670433390413E-01
H61  2.954756886671E-01  4.664033208606E-01  1.840030747306E-01
H62 -2.954756886671E-01 -4.664033208606E-01 -1.840030747306E-01
H63  1.151667441054E-01  4.396865737770E-01  2.592854303352E-01
H64 -1.151667441054E-01 -4.396865737770E-01 -2.592854303352E-01
H65  2.896036117137E-01  2.862483117084E-01  2.371141550823E-01
H66 -2.896036117137E-01 -2.862483117084E-01 -2.371141550823E-01
H67 -4.502012294398E-01  2.913016258221E-01  2.843507402748E-01
H68  4.502012294398E-01 -2.913016258221E-01 -2.843507402748E-01
H69 -4.246919325342E-01  4.527761606732E-01  3.365830967403E-01
H70  4.246919325342E-01 -4.527761606732E-01 -3.365830967403E-01
H71 -4.174113866685E-01  4.672165159148E-01  2.313741375755E-01
H72  4.174113866685E-01 -4.672165159148E-01 -2.313741375755E-01
H73 -4.880745727565E-01 -2.803862606278E-01  3.675117424162E-01
H74  4.880745727565E-01  2.803862606278E-01 -3.675117424162E-01
H75  4.055906919790E-01 -2.589763581720E-01 -4.827529697105E-01
H76 -4.055906919790E-01  2.589763581720E-01  4.827529697105E-01
H77  3.355892511435E-01 -4.168587110306E-01  4.816252011869E-01
H78 -3.355892511435E-01  4.168587110306E-01 -4.816252011869E-01
H79  1.967054995691E-01 -2.378458031275E-01 -4.919070154301E-01
H80 -1.967054995691E-01  2.378458031275E-01  4.919070154301E-01
H81  2.449136978254E-01  1.291223051121E-02  4.171891256927E-01
H82 -2.449136978254E-01 -1.291223051121E-02 -4.171891256927E-01
H83  4.101667650993E-01 -5.266773159843E-03  3.285932571292E-01
H84 -4.101667650993E-01  5.266773159843E-03 -3.285932571292E-01
H85  4.548556941785E-01 -1.707216536321E-02  4.260046321194E-01
H86 -4.548556941785E-01  1.707216536321E-02 -4.260046321194E-01
H87 -1.532661306332E-03 -2.777868804759E-01  2.845362547864E-01
H88  1.532661306332E-03  2.777868804759E-01 -2.845362547864E-01
H89 -3.202334514865E-02 -4.552813619890E-01  4.061538136747E-01
H90  3.202334514865E-02  4.552813619890E-01 -4.061538136747E-01
H91 -2.034942070389E-01 -2.984132468403E-01  4.178188994981E-01
H92  2.034942070389E-01  2.984132468403E-01 -4.178188994981E-01
H93 -4.423463294453E-02 -2.962460128035E-01  4.697994574735E-01
H94  4.423463294453E-02  2.962460128035E-01 -4.697994574735E-01
H95  3.460520591427E-02  1.417060381558E-03  2.971384113565E-01
H96 -3.460520591427E-02 -1.417060381558E-03 -2.971384113565E-01
H97 -1.846532934363E-02 -1.820523946357E-02  4.040333514996E-01
H98  1.846532934363E-02  1.820523946357E-02 -4.040333514996E-01
H99 -1.678225883105E-01 -3.309887287332E-02  3.479472803756E-01
H100  1.678225883105E-01  3.309887287332E-02 -3.479472803756E-01


#===END

data_OPT_STEP_56

_symmetry_space_group_name_H-M 'P 1'
_cell_length_a      8.32161060
_cell_length_b      8.67119966
_cell_length_c     16.92678748
_cell_angle_alpha   87.264666
_cell_angle_beta   76.177661
_cell_angle_gamma   79.630827

loop_
_atom_site_label
_atom_site_fract_x
_atom_site_fract_y
_atom_site_fract_z
SI1  2.690027667462E-01 -3.003290367116E-01  3.177201802949E-01
SI2 -2.690027667462E-01  3.003290367116E-01 -3.177201802949E-01
C3  4.471744107089E-01 -7.556025051100E-02  7.612821701261E-02
C4 -4.471744107089E-01  7.556025051100E-02 -7.612821701261E-02
C5  3.282670906534E-01  3.052096745438E-02  4.365472024746E-02
C6 -3.282670906534E-01 -3.052096745438E-02 -4.365472024746E-02
C7  1.573193115166E-01  6.175436852939E-02  8.400755392904E-02
C8 -1.573193115166E-01 -6.175436852939E-02 -8.400755392904E-02
C9  3.957137790807E-02  1.633844861574E-01  5.253644942682E-02
C10 -3.957137790807E-02 -1.633844861574E-01 -5.253644942682E-02
C11 -1.349590382641E-01  1.921183533670E-01  9.255401730532E-02
C12  1.349590382641E-01 -1.921183533670E-01 -9.255401730532E-02
C13 -2.478470333366E-01  2.914202004092E-01  5.961804968643E-02
C14  2.478470333366E-01 -2.914202004092E-01 -5.961804968643E-02
C15 -1.941450822415E-01  3.709715395728E-01 -1.520607650551E-02
C16  1.941450822415E-01 -3.709715395728E-01  1.520607650551E-02
C17 -2.969096122879E-02  3.469504542377E-01 -5.546745530379E-02
C18  2.969096122879E-02 -3.469504542377E-01  5.546745530379E-02
C19  9.339026337319E-02  2.416700864322E-01 -2.391540286941E-02
C20 -9.339026337319E-02 -2.416700864322E-01  2.391540286941E-02
C21  2.612425711455E-01  2.119067650767E-01 -6.425341855464E-02
C22 -2.612425711455E-01 -2.119067650767E-01  6.425341855464E-02
C23  3.818540052433E-01  1.074371492822E-01 -3.337424147516E-02
C24 -3.818540052433E-01 -1.074371492822E-01  3.337424147516E-02
C25  3.945275518163E-01 -1.495075626510E-01  1.520011115264E-01
C26 -3.945275518163E-01  1.495075626510E-01 -1.520011115264E-01
C27  3.489999456530E-01 -2.118765588651E-01  2.174390664293E-01
C28 -3.489999456530E-01  2.118765588651E-01 -2.174390664293E-01
C29  3.283959125997E-01  4.755304937695E-01  3.075117718108E-01
C30 -3.283959125997E-01 -4.755304937695E-01 -3.075117718108E-01
C31  2.520222844182E-01  4.144498494684E-01  2.434490767113E-01
C32 -2.520222844182E-01 -4.144498494684E-01 -2.434490767113E-01
C33 -4.805628446941E-01  4.189578465948E-01  2.891349563178E-01
C34  4.805628446941E-01 -4.189578465948E-01 -2.891349563178E-01
C35  3.813500623753E-01 -2.283265686343E-01  3.922725756391E-01
C36 -3.813500623753E-01  2.283265686343E-01 -3.922725756391E-01
C37  3.275591044240E-01 -2.898899904311E-01  4.795462613888E-01
C38 -3.275591044240E-01  2.898899904311E-01 -4.795462613888E-01
C39  3.746141616484E-01 -4.995856126599E-02  3.908845866923E-01
C40 -3.746141616484E-01  4.995856126599E-02 -3.908845866923E-01
C41  2.839974286546E-02 -2.396104241553E-01  3.402697532384E-01
C42 -2.839974286546E-02  2.396104241553E-01 -3.402697532384E-01
C43 -6.657546151170E-02 -3.270167139921E-01  4.125990375650E-01
C44  6.657546151170E-02  3.270167139921E-01 -4.125990375650E-01
C45 -3.186914323052E-02 -6.156985898361E-02  3.479114352826E-01
C46  3.186914323052E-02  6.156985898361E-02 -3.479114352826E-01
H47  1.169485764345E-01  9.556936042673E-04  1.406601769852E-01
H48 -1.169485764345E-01 -9.556936042673E-04 -1.406601769852E-01
H49 -1.755891634905E-01  1.309911123079E-01  1.491676389839E-01
H50  1.755891634905E-01 -1.309911123079E-01 -1.491676389839E-01
H51 -3.801114872011E-01  3.100576684145E-01  8.973234916045E-02
H52  3.801114872011E-01 -3.100576684145E-01 -8.973234916045E-02
H53 -2.861502090181E-01  4.517608603568E-01 -3.933778008480E-02
H54  2.861502090181E-01 -4.517608603568E-01  3.933778008480E-02
H55  1.141117928413E-02  4.089261665212E-01 -1.117496064902E-01
H56 -1.141117928413E-02 -4.089261665212E-01  1.117496064902E-01
H57  3.022009419515E-01  2.698998850752E-01 -1.217708779378E-01
H58 -3.022009419515E-01 -2.698998850752E-01  1.217708779378E-01
H59  2.732442333997E-01  4.272390315310E-01  3.669738041562E-01
H60 -2.732442333997E-01 -4.272390315310E-01 -3.669738041562E-01
H61  2.952325561382E-01  4.673583409868E-01  1.839098678139E-01
H62 -2.952325561382E-01 -4.673583409868E-01 -1.839098678139E-01
H63  1.147012800963E-01  4.409486482139E-01  2.590834889809E-01
H64 -1.147012800963E-01 -4.409486482139E-01 -2.590834889809E-01
H65  2.885134503189E-01  2.869946368361E-01  2.368938685292E-01
H66 -2.885134503189E-01 -2.869946368361E-01 -2.368938685292E-01
H67 -4.509756525533E-01  2.908987553037E-01  2.841691423100E-01
H68  4.509756525533E-01 -2.908987553037E-01 -2.841691423100E-01
H69 -4.246625631131E-01  4.517895887306E-01  3.367072200829E-01
H70  4.246625631131E-01 -4.517895887306E-01 -3.367072200829E-01
H71 -4.174585224784E-01  4.670818911391E-01  2.314807618654E-01
H72  4.174585224784E-01 -4.670818911391E-01 -2.314807618654E-01
H73 -4.867217418461E-01 -2.815987681343E-01  3.679050204779E-01
H74  4.867217418461E-01  2.815987681343E-01 -3.679050204779E-01
H75  4.073176568980E-01 -2.602673859150E-01 -4.824479487482E-01
H76 -4.073176568980E-01  2.602673859150E-01  4.824479487482E-01
H77  3.354838949894E-01 -4.172290833468E-01  4.818960093385E-01
H78 -3.354838949894E-01  4.172290833468E-01 -4.818960093385E-01
H79  1.982547051706E-01 -2.374077905228E-01 -4.916736783518E-01
H80 -1.982547051706E-01  2.374077905228E-01  4.916736783518E-01
H81  2.481927456992E-01  1.276918034194E-02  4.173727019851E-01
H82 -2.481927456992E-01 -1.276918034194E-02 -4.173727019851E-01
H83  4.134680444148E-01 -6.066947398128E-03  3.289051458646E-01
H84 -4.134680444148E-01  6.066947398128E-03 -3.289051458646E-01
H85  4.580646194529E-01 -1.845483666361E-02  4.264233261118E-01
H86 -4.580646194529E-01  1.845483666361E-02 -4.264233261118E-01
H87 -1.008264992956E-03 -2.763864541917E-01  2.848532321242E-01
H88  1.008264992956E-03  2.763864541917E-01 -2.848532321242E-01
H89 -3.179025052163E-02 -4.542906575533E-01  4.062993492789E-01
H90  3.179025052163E-02  4.542906575533E-01 -4.062993492789E-01
H91 -2.025409429199E-01 -2.968854756095E-01  4.182286593026E-01
H92  2.025409429199E-01  2.968854756095E-01 -4.182286593026E-01
H93 -4.273104569692E-02 -2.957515166593E-01  4.701024671342E-01
H94  4.273104569692E-02  2.957515166593E-01 -4.701024671342E-01
H95  3.670744442948E-02  2.466980025600E-03  2.976860689021E-01
H96 -3.670744442948E-02 -2.466980025600E-03 -2.976860689021E-01
H97 -1.594059772302E-02 -1.758534356883E-02  4.045701699255E-01
H98  1.594059772302E-02  1.758534356883E-02 -4.045701699255E-01
H99 -1.658512903888E-01 -3.155180455906E-02  3.485454966051E-01
H100  1.658512903888E-01  3.155180455906E-02 -3.485454966051E-01


#===END

data_OPT_STEP_57

_symmetry_space_group_name_H-M 'P 1'
_cell_length_a      8.32428374
_cell_length_b      8.67118848
_cell_length_c     16.90903425
_cell_angle_alpha   87.295958
_cell_angle_beta   76.252194
_cell_angle_gamma   79.674048

loop_
_atom_site_label
_atom_site_fract_x
_atom_site_fract_y
_atom_site_fract_z
SI1  2.697949232069E-01 -3.007578619472E-01  3.178493878998E-01
SI2 -2.697949232069E-01  3.007578619472E-01 -3.178493878998E-01
C3  4.473951530828E-01 -7.557434200537E-02  7.619351587785E-02
C4 -4.473951530828E-01  7.557434200537E-02 -7.619351587785E-02
C5  3.285133046478E-01  3.051307076211E-02  4.371147744131E-02
C6 -3.285133046478E-01 -3.051307076211E-02 -4.371147744131E-02
C7  1.577840522638E-01  6.176109797676E-02  8.411740035495E-02
C8 -1.577840522638E-01 -6.176109797676E-02 -8.411740035495E-02
C9  4.001008423268E-02  1.633050088058E-01  5.263017529225E-02
C10 -4.001008423268E-02 -1.633050088058E-01 -5.263017529225E-02
C11 -1.343184796107E-01  1.919753366344E-01  9.268284455349E-02
C12  1.343184796107E-01 -1.919753366344E-01 -9.268284455349E-02
C13 -2.472521237143E-01  2.911154119452E-01  5.969289838608E-02
C14  2.472521237143E-01 -2.911154119452E-01 -5.969289838608E-02
C15 -1.938116360230E-01  3.705438140009E-01 -1.522677590201E-02
C16  1.938116360230E-01 -3.705438140009E-01  1.522677590201E-02
C17 -2.954095872676E-02  3.466212360988E-01 -5.550684166187E-02
C18  2.954095872676E-02 -3.466212360988E-01  5.550684166187E-02
C19  9.357736844949E-02  2.415145159330E-01 -2.389974000187E-02
C20 -9.357736844949E-02 -2.415145159330E-01  2.389974000187E-02
C21  2.612237982098E-01  2.118257589281E-01 -6.426666697613E-02
C22 -2.612237982098E-01 -2.118257589281E-01  6.426666697613E-02
C23  3.818515731893E-01  1.074101031246E-01 -3.338364886019E-02
C24 -3.818515731893E-01 -1.074101031246E-01  3.338364886019E-02
C25  3.948972973251E-01 -1.497117599429E-01  1.520760328991E-01
C26 -3.948972973251E-01  1.497117599429E-01 -1.520760328991E-01
C27  3.496517321189E-01 -2.123311848354E-01  2.175048275598E-01
C28 -3.496517321189E-01  2.123311848354E-01 -2.175048275598E-01
C29  3.281234371712E-01  4.751102377568E-01  3.075611973673E-01
C30 -3.281234371712E-01 -4.751102377568E-01 -3.075611973673E-01
C31  2.510881486950E-01  4.144944184255E-01  2.434817524279E-01
C32 -2.510881486950E-01 -4.144944184255E-01 -2.434817524279E-01
C33 -4.810587239950E-01  4.179654223850E-01  2.890778530327E-01
C34  4.810587239950E-01 -4.179654223850E-01 -2.890778530327E-01
C35  3.828730041363E-01 -2.293718223202E-01  3.924164108602E-01
C36 -3.828730041363E-01  2.293718223202E-01 -3.924164108602E-01
C37  3.286042358341E-01 -2.903486592669E-01  4.798225047383E-01
C38 -3.286042358341E-01  2.903486592669E-01 -4.798225047383E-01
C39  3.774573849956E-01 -5.119659841928E-02  3.908372991785E-01
C40 -3.774573849956E-01  5.119659841928E-02 -3.908372991785E-01
C41  2.944991864008E-02 -2.391400809282E-01  3.405577343575E-01
C42 -2.944991864008E-02  2.391400809282E-01 -3.405577343575E-01
C43 -6.573154150313E-02 -3.263636349102E-01  4.128852998609E-01
C44  6.573154150313E-02  3.263636349102E-01 -4.128852998609E-01
C45 -2.977166899371E-02 -6.100732353647E-02  3.484046257555E-01
C46  2.977166899371E-02  6.100732353647E-02 -3.484046257555E-01
H47  1.175808241298E-01  9.782593974572E-04  1.408221285396E-01
H48 -1.175808241298E-01 -9.782593974572E-04 -1.408221285396E-01
H49 -1.747658308675E-01  1.309594600781E-01  1.493781172979E-01
H50  1.747658308675E-01 -1.309594600781E-01 -1.493781172979E-01
H51 -3.793679390049E-01  3.096721959261E-01  8.984584642948E-02
H52  3.793679390049E-01 -3.096721959261E-01 -8.984584642948E-02
H53 -2.858444971682E-01  4.511420371887E-01 -3.943579398640E-02
H54  2.858444971682E-01 -4.511420371887E-01  3.943579398640E-02
H55  1.138514176126E-02  4.085354598346E-01 -1.118590464687E-01
H56 -1.138514176126E-02 -4.085354598346E-01  1.118590464687E-01
H57  3.019915242995E-01  2.698038046890E-01 -1.218346177494E-01
H58 -3.019915242995E-01 -2.698038046890E-01  1.218346177494E-01
H59  2.730295943007E-01  4.269035786776E-01  3.670649793777E-01
H60 -2.730295943007E-01 -4.269035786776E-01 -3.670649793777E-01
H61  2.942360001051E-01  4.673531050951E-01  1.839088508302E-01
H62 -2.942360001051E-01 -4.673531050951E-01 -1.839088508302E-01
H63  1.138911204200E-01  4.413913360226E-01  2.591905064038E-01
H64 -1.138911204200E-01 -4.413913360226E-01 -2.591905064038E-01
H65  2.870209334189E-01  2.870466171285E-01  2.368731864075E-01
H66 -2.870209334189E-01 -2.870466171285E-01 -2.368731864075E-01
H67 -4.520568482612E-01  2.899222762778E-01  2.839457207113E-01
H68  4.520568482612E-01 -2.899222762778E-01 -2.839457207113E-01
H69 -4.247509313512E-01  4.502335211628E-01  3.367204024826E-01
H70  4.247509313512E-01 -4.502335211628E-01 -3.367204024826E-01
H71 -4.179710220526E-01  4.661951463961E-01  2.314412966207E-01
H72  4.179710220526E-01 -4.661951463961E-01 -2.314412966207E-01
H73 -4.855391522335E-01 -2.834042064693E-01  3.681556287439E-01
H74  4.855391522335E-01  2.834042064693E-01 -3.681556287439E-01
H75  4.086054740903E-01 -2.610360525688E-01 -4.821401425316E-01
H76 -4.086054740903E-01  2.610360525688E-01  4.821401425316E-01
H77  3.356438339953E-01 -4.175863147138E-01  4.823252915722E-01
H78 -3.356438339953E-01  4.175863147138E-01 -4.823252915722E-01
H79  1.996123835429E-01 -2.371547014326E-01 -4.914848299707E-01
H80 -1.996123835429E-01  2.371547014326E-01  4.914848299707E-01
H81  2.514779043868E-01  1.220499543427E-02  4.172576164571E-01
H82 -2.514779043868E-01 -1.220499543427E-02 -4.172576164571E-01
H83  4.165507912528E-01 -7.718199418391E-03  3.287671341926E-01
H84 -4.165507912528E-01  7.718199418391E-03 -3.287671341926E-01
H85  4.612402530643E-01 -2.012487770469E-02  4.263968703720E-01
H86 -4.612402530643E-01  2.012487770469E-02 -4.263968703720E-01
H87 -5.102116819012E-04 -2.753930272835E-01  2.850776272379E-01
H88  5.102116819012E-04  2.753930272835E-01 -2.850776272379E-01
H89 -3.180762738197E-02 -4.536203374615E-01  4.064342285434E-01
H90  3.180762738197E-02  4.536203374615E-01 -4.064342285434E-01
H91 -2.015996649628E-01 -2.954458122145E-01  4.186030336540E-01
H92  2.015996649628E-01  2.954458122145E-01 -4.186030336540E-01
H93 -4.129882425609E-02 -2.956738681125E-01  4.704362272990E-01
H94  4.129882425609E-02  2.956738681125E-01 -4.704362272990E-01
H95  3.901527791644E-02  2.975540218691E-03  2.982122301418E-01
H96 -3.901527791644E-02 -2.975540218691E-03 -2.982122301418E-01
H97 -1.330083128156E-02 -1.756123793632E-02  4.051499422650E-01
H98  1.330083128156E-02  1.756123793632E-02 -4.051499422650E-01
H99 -1.636658691176E-01 -3.031935446386E-02  3.490813624900E-01
H100  1.636658691176E-01  3.031935446386E-02 -3.490813624900E-01


#===END

data_OPT_STEP_58

_symmetry_space_group_name_H-M 'P 1'
_cell_length_a      8.33392411
_cell_length_b      8.66928845
_cell_length_c     16.88534441
_cell_angle_alpha   87.244052
_cell_angle_beta   76.378020
_cell_angle_gamma   79.680905

loop_
_atom_site_label
_atom_site_fract_x
_atom_site_fract_y
_atom_site_fract_z
SI1  2.716068739257E-01 -3.009832626013E-01  3.183002116772E-01
SI2 -2.716068739257E-01  3.009832626013E-01 -3.183002116772E-01
C3  4.478659429630E-01 -7.579590509934E-02  7.627409943125E-02
C4 -4.478659429630E-01  7.579590509934E-02 -7.627409943125E-02
C5  3.289317924555E-01  3.030908177925E-02  4.375727617344E-02
C6 -3.289317924555E-01 -3.030908177925E-02 -4.375727617344E-02
C7  1.586440367529E-01  6.141291274295E-02  8.422500069982E-02
C8 -1.586440367529E-01 -6.141291274295E-02 -8.422500069982E-02
C9  4.078416412617E-02  1.629550561727E-01  5.270849749744E-02
C10 -4.078416412617E-02 -1.629550561727E-01 -5.270849749744E-02
C11 -1.331495778359E-01  1.914612560619E-01  9.281350293427E-02
C12  1.331495778359E-01 -1.914612560619E-01 -9.281350293427E-02
C13 -2.462105685760E-01  2.905215183853E-01  5.976719006404E-02
C14  2.462105685760E-01 -2.905215183853E-01 -5.976719006404E-02
C15 -1.933055945950E-01  3.700060482263E-01 -1.528063389240E-02
C16  1.933055945950E-01 -3.700060482263E-01  1.528063389240E-02
C17 -2.941143073884E-02  3.462926490088E-01 -5.559788611332E-02
C18  2.941143073884E-02 -3.462926490088E-01  5.559788611332E-02
C19  9.381485766372E-02  2.412938914270E-01 -2.392507201649E-02
C20 -9.381485766372E-02 -2.412938914270E-01  2.392507201649E-02
C21  2.610713828163E-01  2.118482910755E-01 -6.433375374997E-02
C22 -2.610713828163E-01 -2.118482910755E-01  6.433375374997E-02
C23  3.817782109424E-01  1.074257931773E-01 -3.342205319200E-02
C24 -3.817782109424E-01 -1.074257931773E-01  3.342205319200E-02
C25  3.958598386755E-01 -1.500032201628E-01  1.522666949681E-01
C26 -3.958598386755E-01  1.500032201628E-01 -1.522666949681E-01
C27  3.510117441933E-01 -2.126301723775E-01  2.178044049759E-01
C28 -3.510117441933E-01  2.126301723775E-01 -2.178044049759E-01
C29  3.280251767686E-01  4.748049661676E-01  3.079574738382E-01
C30 -3.280251767686E-01 -4.748049661676E-01 -3.079574738382E-01
C31  2.495340911768E-01  4.151456187566E-01  2.440584877796E-01
C32 -2.495340911768E-01 -4.151456187566E-01 -2.440584877796E-01
C33 -4.816575831556E-01  4.165728526231E-01  2.890823465319E-01
C34  4.816575831556E-01 -4.165728526231E-01 -2.890823465319E-01
C35  3.861241051037E-01 -2.310419008811E-01  3.927792741337E-01
C36 -3.861241051037E-01  2.310419008811E-01 -3.927792741337E-01
C37  3.311624772264E-01 -2.912534456697E-01  4.804020208631E-01
C38 -3.311624772264E-01  2.912534456697E-01 -4.804020208631E-01
C39  3.832301236611E-01 -5.311812656811E-02  3.908221971182E-01
C40 -3.832301236611E-01  5.311812656811E-02 -3.908221971182E-01
C41  3.183446893866E-02 -2.376262299106E-01  3.413176769068E-01
C42 -3.183446893866E-02  2.376262299106E-01 -3.413176769068E-01
C43 -6.363064341063E-02 -3.246864470466E-01  4.136530711199E-01
C44  6.363064341063E-02  3.246864470466E-01 -4.136530711199E-01
C45 -2.557224808740E-02 -5.928139759962E-02  3.494105633080E-01
C46  2.557224808740E-02  5.928139759962E-02 -3.494105633080E-01
H47  1.188646323305E-01  4.804653879478E-04  1.409933584934E-01
H48 -1.188646323305E-01 -4.804653879478E-04 -1.409933584934E-01
H49 -1.732058771599E-01  1.304267433529E-01  1.496199862043E-01
H50  1.732058771599E-01 -1.304267433529E-01 -1.496199862043E-01
H51 -3.780210382156E-01  3.089102987913E-01  8.999710091589E-02
H52  3.780210382156E-01 -3.089102987913E-01 -8.999710091589E-02
H53 -2.853744023854E-01  4.504465543179E-01 -3.960264046922E-02
H54  2.853744023854E-01 -4.504465543179E-01  3.960264046922E-02
H55  1.112417965724E-02  4.082579664667E-01 -1.120522079629E-01
H56 -1.112417965724E-02 -4.082579664667E-01  1.120522079629E-01
H57  3.014330455669E-01  2.699602965744E-01 -1.219617427884E-01
H58 -3.014330455669E-01 -2.699602965744E-01  1.219617427884E-01
H59  2.733696325313E-01  4.266825651073E-01  3.675836124364E-01
H60 -2.733696325313E-01 -4.266825651073E-01 -3.675836124364E-01
H61  2.923750514891E-01  4.679279124540E-01  1.843779595798E-01
H62 -2.923750514891E-01 -4.679279124540E-01 -1.843779595798E-01
H63  1.126232679739E-01  4.429435023232E-01  2.600195222915E-01
H64 -1.126232679739E-01 -4.429435023232E-01 -2.600195222915E-01
H65  2.843733409398E-01  2.876060816319E-01  2.374488082119E-01
H66 -2.843733409398E-01 -2.876060816319E-01 -2.374488082119E-01
H67 -4.536383928822E-01  2.885223521114E-01  2.839187955918E-01
H68  4.536383928822E-01 -2.885223521114E-01 -2.839187955918E-01
H69 -4.243990067857E-01  4.481776113695E-01  3.365987269885E-01
H70  4.243990067857E-01 -4.481776113695E-01 -3.365987269885E-01
H71 -4.189774616798E-01  4.646789472452E-01  2.313182875296E-01
H72  4.189774616798E-01 -4.646789472452E-01 -2.313182875296E-01
H73 -4.829921657895E-01 -2.865408573613E-01  3.686944407828E-01
H74  4.829921657895E-01  2.865408573613E-01 -3.686944407828E-01
H75  4.116643351147E-01 -2.628078734420E-01 -4.815525946728E-01
H76 -4.116643351147E-01  2.628078734420E-01  4.815525946728E-01
H77  3.365989358280E-01 -4.183461403281E-01  4.831861309668E-01
H78 -3.365989358280E-01  4.183461403281E-01 -4.831861309668E-01
H79  2.028640366012E-01 -2.367635276700E-01 -4.910490292836E-01
H80 -2.028640366012E-01  2.367635276700E-01  4.910490292836E-01
H81  2.581030628053E-01  1.166794629244E-02  4.170243757414E-01
H82 -2.581030628053E-01 -1.166794629244E-02 -4.170243757414E-01
H83  4.229763485685E-01 -1.018536465099E-02  3.286160894844E-01
H84 -4.229763485685E-01  1.018536465099E-02 -3.286160894844E-01
H85  4.674790602067E-01 -2.314052878949E-02  4.264777760921E-01
H86 -4.674790602067E-01  2.314052878949E-02 -4.264777760921E-01
H87  9.344084769041E-04 -2.728693240407E-01  2.857907736502E-01
H88 -9.344084769041E-04  2.728693240407E-01 -2.857907736502E-01
H89 -3.102138053281E-02 -4.520034160401E-01  4.070375249009E-01
H90  3.102138053281E-02  4.520034160401E-01 -4.070375249009E-01
H91 -1.992500261804E-01 -2.925687032407E-01  4.194848355358E-01
H92  1.992500261804E-01  2.925687032407E-01 -4.194848355358E-01
H93 -3.833496875304E-02 -2.949674244200E-01  4.712550167838E-01
H94  3.833496875304E-02  2.949674244200E-01 -4.712550167838E-01
H95  4.329346024148E-02  4.534408522360E-03  2.991622632118E-01
H96 -4.329346024148E-02 -4.534408522360E-03 -2.991622632118E-01
H97 -7.875854899613E-03 -1.674056384401E-02  4.061807562243E-01
H98  7.875854899613E-03  1.674056384401E-02 -4.061807562243E-01
H99 -1.593143300820E-01 -2.736093766706E-02  3.503134786778E-01
H100  1.593143300820E-01  2.736093766706E-02 -3.503134786778E-01


#===END

data_OPT_STEP_59

_symmetry_space_group_name_H-M 'P 1'
_cell_length_a      8.33197970
_cell_length_b      8.62535090
_cell_length_c     16.88214909
_cell_angle_alpha   87.669296
_cell_angle_beta   76.699491
_cell_angle_gamma   80.110577

loop_
_atom_site_label
_atom_site_fract_x
_atom_site_fract_y
_atom_site_fract_z
SI1  2.737451602363E-01 -3.003105106561E-01  3.177932420681E-01
SI2 -2.737451602363E-01  3.003105106561E-01 -3.177932420681E-01
C3  4.485743439484E-01 -7.488496499216E-02  7.640271127274E-02
C4 -4.485743439484E-01  7.488496499216E-02 -7.640271127274E-02
C5  3.297895203593E-01  3.093549541886E-02  4.395395473646E-02
C6 -3.297895203593E-01 -3.093549541886E-02 -4.395395473646E-02
C7  1.602173941536E-01  6.267167736475E-02  8.465083429523E-02
C8 -1.602173941536E-01 -6.267167736475E-02 -8.465083429523E-02
C9  4.235957129830E-02  1.634959551833E-01  5.311758408150E-02
C10 -4.235957129830E-02 -1.634959551833E-01 -5.311758408150E-02
C11 -1.308826831381E-01  1.924457477029E-01  9.340423489343E-02
C12  1.308826831381E-01 -1.924457477029E-01 -9.340423489343E-02
C13 -2.440946147198E-01  2.902001590926E-01  6.013423000341E-02
C14  2.440946147198E-01 -2.902001590926E-01 -6.013423000341E-02
C15 -1.919935408377E-01  3.680385574593E-01 -1.533742992941E-02
C16  1.919935408377E-01 -3.680385574593E-01  1.533742992941E-02
C17 -2.870268964373E-02  3.441774508543E-01 -5.572227138914E-02
C18  2.870268964373E-02 -3.441774508543E-01  5.572227138914E-02
C19  9.462407262989E-02  2.404430410056E-01 -2.381587209565E-02
C20 -9.462407262989E-02 -2.404430410056E-01  2.381587209565E-02
C21  2.612158373425E-01  2.107454782669E-01 -6.431396851928E-02
C22 -2.612158373425E-01 -2.107454782669E-01  6.431396851928E-02
C23  3.818923591733E-01  1.070338234522E-01 -3.337492445218E-02
C24 -3.818923591733E-01 -1.070338234522E-01  3.337492445218E-02
C25  3.971817881509E-01 -1.487454022183E-01  1.523107730724E-01
C26 -3.971817881509E-01  1.487454022183E-01 -1.523107730724E-01
C27  3.533986460349E-01 -2.117017264617E-01  2.176780116202E-01
C28 -3.533986460349E-01  2.117017264617E-01 -2.176780116202E-01
C29  3.255118914532E-01  4.747057663632E-01  3.065858885940E-01
C30 -3.255118914532E-01 -4.747057663632E-01 -3.065858885940E-01
C31  2.447563812377E-01  4.165159877288E-01  2.425694535811E-01
C32 -2.447563812377E-01 -4.165159877288E-01 -2.425694535811E-01
C33 -4.850802456951E-01  4.145718886426E-01  2.874410669554E-01
C34  4.850802456951E-01 -4.145718886426E-01 -2.874410669554E-01
C35  3.907379865101E-01 -2.329156732357E-01  3.926389461560E-01
C36 -3.907379865101E-01  2.329156732357E-01 -3.926389461560E-01
C37  3.338563215101E-01 -2.923556082644E-01  4.799552526293E-01
C38 -3.338563215101E-01  2.923556082644E-01 -4.799552526293E-01
C39  3.927981807475E-01 -5.508183742438E-02  3.909090263999E-01
C40 -3.927981807475E-01  5.508183742438E-02 -3.909090263999E-01
C41  3.500374166795E-02 -2.338812981189E-01  3.411331017360E-01
C42 -3.500374166795E-02  2.338812981189E-01 -3.411331017360E-01
C43 -6.204356726945E-02 -3.207041726343E-01  4.128953392322E-01
C44  6.204356726945E-02  3.207041726343E-01 -4.128953392322E-01
C45 -1.847741737778E-02 -5.489278532562E-02  3.500297018591E-01
C46  1.847741737778E-02  5.489278532562E-02 -3.500297018591E-01
H47  1.209622994924E-01  2.794826872764E-03  1.416370147966E-01
H48 -1.209622994924E-01 -2.794826872764E-03 -1.416370147966E-01
H49 -1.704266522742E-01  1.327547897821E-01  1.505825206382E-01
H50  1.704266522742E-01 -1.327547897821E-01 -1.505825206382E-01
H51 -3.753659165180E-01  3.087774573014E-01  9.060023024025E-02
H52  3.753659165180E-01 -3.087774573014E-01 -9.060023024025E-02
H53 -2.840753144595E-01  4.472147439757E-01 -4.005191485446E-02
H54  2.840753144595E-01 -4.472147439757E-01  4.005191485446E-02
H55  1.122437149334E-02  4.049227898394E-01 -1.125222875838E-01
H56 -1.122437149334E-02 -4.049227898394E-01  1.125222875838E-01
H57  3.010472614462E-01  2.680058098839E-01 -1.221046695085E-01
H58 -3.010472614462E-01 -2.680058098839E-01  1.221046695085E-01
H59  2.707439351663E-01  4.265418164895E-01  3.659818713778E-01
H60 -2.707439351663E-01 -4.265418164895E-01 -3.659818713778E-01
H61  2.884018373807E-01  4.690388403830E-01  1.830654401727E-01
H62 -2.884018373807E-01 -4.690388403830E-01 -1.830654401727E-01
H63  1.081836490970E-01  4.463146015966E-01  2.585245552246E-01
H64 -1.081836490970E-01 -4.463146015966E-01 -2.585245552246E-01
H65  2.767361654069E-01  2.883039880531E-01  2.357172521840E-01
H66 -2.767361654069E-01 -2.883039880531E-01 -2.357172521840E-01
H67 -4.593426200813E-01  2.861756262535E-01  2.819855275236E-01
H68  4.593426200813E-01 -2.861756262535E-01 -2.819855275236E-01
H69 -4.264607344231E-01  4.455280470047E-01  3.349251104046E-01
H70  4.264607344231E-01 -4.455280470047E-01 -3.349251104046E-01
H71 -4.222642811691E-01  4.623729763079E-01  2.298454178734E-01
H72  4.222642811691E-01 -4.623729763079E-01 -2.298454178734E-01
H73 -4.796780537535E-01 -2.908311888276E-01  3.691145085785E-01
H74  4.796780537535E-01  2.908311888276E-01 -3.691145085785E-01
H75  4.144925208350E-01 -2.648663977341E-01 -4.814632552919E-01
H76 -4.144925208350E-01  2.648663977341E-01  4.814632552919E-01
H77  3.369475949608E-01 -4.194352089547E-01  4.825335671747E-01
H78 -3.369475949608E-01  4.194352089547E-01 -4.825335671747E-01
H79  2.065575921505E-01 -2.365331472690E-01 -4.921198712251E-01
H80 -2.065575921505E-01  2.365331472690E-01  4.921198712251E-01
H81  2.692713895596E-01  1.212237426010E-02  4.166888714128E-01
H82 -2.692713895596E-01 -1.212237426010E-02 -4.166888714128E-01
H83  4.339579129239E-01 -1.273023938729E-02  3.289319495129E-01
H84 -4.339579129239E-01  1.273023938729E-02 -3.289319495129E-01
H85  4.780563702341E-01 -2.708004873808E-02  4.269817191390E-01
H86 -4.780563702341E-01  2.708004873808E-02 -4.269817191390E-01
H87  2.592089374214E-03 -2.676648718913E-01  2.854303447489E-01
H88 -2.592089374214E-03  2.676648718913E-01 -2.854303447489E-01
H89 -3.326437688885E-02 -4.485689587040E-01  4.054273226080E-01
H90  3.326437688885E-02  4.485689587040E-01 -4.054273226080E-01
H91 -1.972401601778E-01 -2.855957663275E-01  4.188967968956E-01
H92  1.972401601778E-01  2.855957663275E-01 -4.188967968956E-01
H93 -3.473799350022E-02 -2.930673116138E-01  4.706659842645E-01
H94  3.473799350022E-02  2.930673116138E-01 -4.706659842645E-01
H95  5.104680821740E-02  8.647095219783E-03  3.000474459450E-01
H96 -5.104680821740E-02 -8.647095219783E-03 -3.000474459450E-01
H97  1.329658317541E-03 -1.349870164930E-02  4.069095764156E-01
H98 -1.329658317541E-03  1.349870164930E-02 -4.069095764156E-01
H99 -1.519289539045E-01 -2.103934582967E-02  3.512101699961E-01
H100  1.519289539045E-01  2.103934582967E-02 -3.512101699961E-01


#===END

data_OPT_STEP_60

_symmetry_space_group_name_H-M 'P 1'
_cell_length_a      8.33405665
_cell_length_b      8.66074581
_cell_length_c     16.88276509
_cell_angle_alpha   87.321750
_cell_angle_beta   76.452528
_cell_angle_gamma   79.787628

loop_
_atom_site_label
_atom_site_fract_x
_atom_site_fract_y
_atom_site_fract_z
SI1  2.721749980904E-01 -3.007507380030E-01  3.183048448693E-01
SI2 -2.721749980904E-01  3.007507380030E-01 -3.183048448693E-01
C3  4.480800249889E-01 -7.555252729744E-02  7.634301405555E-02
C4 -4.480800249889E-01  7.555252729744E-02 -7.634301405555E-02
C5  3.291655631437E-01  3.044838515092E-02  4.383331699065E-02
C6 -3.291655631437E-01 -3.044838515092E-02 -4.383331699065E-02
C7  1.590770769463E-01  6.173118392172E-02  8.439322727325E-02
C8 -1.590770769463E-01 -6.173118392172E-02 -8.439322727325E-02
C9  4.122840124497E-02  1.630808195287E-01  5.286204094948E-02
C10 -4.122840124497E-02 -1.630808195287E-01 -5.286204094948E-02
C11 -1.324962948340E-01  1.917703851357E-01  9.306163941147E-02
C12  1.324962948340E-01 -1.917703851357E-01 -9.306163941147E-02
C13 -2.455910321150E-01  2.904676363451E-01  5.994124811790E-02
C14  2.455910321150E-01 -2.904676363451E-01 -5.994124811790E-02
C15 -1.929263869614E-01  3.694058583142E-01 -1.529401117049E-02
C16  1.929263869614E-01 -3.694058583142E-01  1.529401117049E-02
C17 -2.921657965888E-02  3.456035293373E-01 -5.566872242966E-02
C18  2.921657965888E-02 -3.456035293373E-01  5.566872242966E-02
C19  9.403962195805E-02  2.409965901903E-01 -2.390694679420E-02
C20 -9.403962195805E-02 -2.409965901903E-01  2.390694679420E-02
C21  2.611033912206E-01  2.114790412403E-01 -6.436513933997E-02
C22 -2.611033912206E-01 -2.114790412403E-01  6.436513933997E-02
C23  3.817986240166E-01  1.072851181389E-01 -3.342386871111E-02
C24 -3.817986240166E-01 -1.072851181389E-01  3.342386871111E-02
C25  3.962726465512E-01 -1.496810536376E-01  1.523435800211E-01
C26 -3.962726465512E-01  1.496810536376E-01 -1.523435800211E-01
C27  3.516397288747E-01 -2.123684497966E-01  2.178604396380E-01
C28 -3.516397288747E-01  2.123684497966E-01 -2.178604396380E-01
C29  3.273179318798E-01  4.749415083962E-01  3.078006329953E-01
C30 -3.273179318798E-01 -4.749415083962E-01 -3.078006329953E-01
C31  2.481339224041E-01  4.157053588321E-01  2.439386060822E-01
C32 -2.481339224041E-01 -4.157053588321E-01 -2.439386060822E-01
C33 -4.826287563499E-01  4.162321321543E-01  2.887855907078E-01
C34  4.826287563499E-01 -4.162321321543E-01 -2.887855907078E-01
C35  3.873284630622E-01 -2.315084601333E-01  3.928423574126E-01
C36 -3.873284630622E-01  2.315084601333E-01 -3.928423574126E-01
C37  3.318901290157E-01 -2.914070444099E-01  4.804271970212E-01
C38 -3.318901290157E-01  2.914070444099E-01 -4.804271970212E-01
C39  3.857461414955E-01 -5.370602796772E-02  3.908427035755E-01
C40 -3.857461414955E-01  5.370602796772E-02 -3.908427035755E-01
C41  3.272471057467E-02 -2.365483423299E-01  3.414021841199E-01
C42 -3.272471057467E-02  2.365483423299E-01 -3.414021841199E-01
C43 -6.328235792202E-02 -3.234321531696E-01  4.136235856345E-01
C44  6.328235792202E-02  3.234321531696E-01 -4.136235856345E-01
C45 -2.359770297613E-02 -5.814144406430E-02  3.496251971015E-01
C46  2.359770297613E-02  5.814144406430E-02 -3.496251971015E-01
H47  1.194399500299E-01  1.107359155339E-03  1.412566457683E-01
H48 -1.194399500299E-01 -1.107359155339E-03 -1.412566457683E-01
H49 -1.724056560644E-01  1.311842868204E-01  1.500288131924E-01
H50  1.724056560644E-01 -1.311842868204E-01 -1.500288131924E-01
H51 -3.772271702703E-01  3.089698747325E-01  9.029257921188E-02
H52  3.772271702703E-01 -3.089698747325E-01 -9.029257921188E-02
H53 -2.849771442319E-01  4.494474463708E-01 -3.976697869789E-02
H54  2.849771442319E-01 -4.494474463708E-01  3.976697869789E-02
H55  1.113114171146E-02  4.071538748492E-01 -1.122777178886E-01
H56 -1.113114171146E-02 -4.071538748492E-01  1.122777178886E-01
H57  3.013120659609E-01  2.693314622468E-01 -1.220742346161E-01
H58 -3.013120659609E-01 -2.693314622468E-01  1.220742346161E-01
H59  2.727148460028E-01  4.268329512049E-01  3.674075942174E-01
H60 -2.727148460028E-01 -4.268329512049E-01 -3.674075942174E-01
H61  2.912012669395E-01  4.683261110009E-01  1.842561287515E-01
H62 -2.912012669395E-01 -4.683261110009E-01 -1.842561287515E-01
H63  1.113243639200E-01  4.441179840678E-01  2.599314751475E-01
H64 -1.113243639200E-01 -4.441179840678E-01 -2.599314751475E-01
H65  2.821280382715E-01  2.880185970616E-01  2.373345507399E-01
H66 -2.821280382715E-01 -2.880185970616E-01 -2.373345507399E-01
H67 -4.552279740277E-01  2.881509911999E-01  2.836195427867E-01
H68  4.552279740277E-01 -2.881509911999E-01 -2.836195427867E-01
H69 -4.249321312332E-01  4.477120453182E-01  3.362294398035E-01
H70  4.249321312332E-01 -4.477120453182E-01 -3.362294398035E-01
H71 -4.200025580403E-01  4.641805911432E-01  2.310044072995E-01
H72  4.200025580403E-01 -4.641805911432E-01 -2.310044072995E-01
H73 -4.821648988286E-01 -2.876557040683E-01  3.689379833527E-01
H74  4.821648988286E-01  2.876557040683E-01 -3.689379833527E-01
H75  4.122628094769E-01 -2.629808473130E-01 -4.813941818428E-01
H76 -4.122628094769E-01  2.629808473130E-01  4.813941818428E-01
H77  3.370094301468E-01 -4.184383302205E-01  4.832164782833E-01
H78 -3.370094301468E-01  4.184383302205E-01 -4.832164782833E-01
H79  2.038174684559E-01 -2.367936026568E-01 -4.912260093923E-01
H80 -2.038174684559E-01  2.367936026568E-01  4.912260093923E-01
H81  2.610826180370E-01  1.172777340087E-02  4.169305151690E-01
H82 -2.610826180370E-01 -1.172777340087E-02 -4.169305151690E-01
H83  4.258263362784E-01 -1.102499757240E-02  3.286619780222E-01
H84 -4.258263362784E-01  1.102499757240E-02 -3.286619780222E-01
H85  4.702716223259E-01 -2.423373634980E-02  4.265662080362E-01
H86 -4.702716223259E-01  2.423373634980E-02 -4.265662080362E-01
H87  1.477085898070E-03 -2.713825850818E-01  2.858345924016E-01
H88 -1.477085898070E-03  2.713825850818E-01 -2.858345924016E-01
H89 -3.176690365154E-02 -4.508564484403E-01  4.068481157106E-01
H90  3.176690365154E-02  4.508564484403E-01 -4.068481157106E-01
H91 -1.987418745653E-01 -2.904482749870E-01  4.194409034365E-01
H92  1.987418745653E-01  2.904482749870E-01 -4.194409034365E-01
H93 -3.753785866662E-02 -2.942621027902E-01  4.712797630956E-01
H94  3.753785866662E-02  2.942621027902E-01 -4.712797630956E-01
H95  4.545522384937E-02  5.524324298726E-03  2.994035619668E-01
H96 -4.545522384937E-02 -5.524324298726E-03 -2.994035619668E-01
H97 -5.369497367504E-03 -1.590885386441E-02  4.064125044901E-01
H98  5.369497367504E-03  1.590885386441E-02 -4.064125044901E-01
H99 -1.572285003421E-01 -2.571408212375E-02  3.505972867972E-01
H100  1.572285003421E-01  2.571408212375E-02 -3.505972867972E-01


#===END

data_OPT_STEP_61

_symmetry_space_group_name_H-M 'P 1'
_cell_length_a      8.34692004
_cell_length_b      8.66122369
_cell_length_c     16.87161786
_cell_angle_alpha   87.306639
_cell_angle_beta   76.486090
_cell_angle_gamma   79.737494

loop_
_atom_site_label
_atom_site_fract_x
_atom_site_fract_y
_atom_site_fract_z
SI1  2.726336882884E-01 -3.006928625827E-01  3.184319447664E-01
SI2 -2.726336882884E-01  3.006928625827E-01 -3.184319447664E-01
C3  4.483571072631E-01 -7.579689968238E-02  7.629780382356E-02
C4 -4.483571072631E-01  7.579689968238E-02 -7.629780382356E-02
C5  3.293695935935E-01  3.017933258383E-02  4.380378886619E-02
C6 -3.293695935935E-01 -3.017933258383E-02 -4.380378886619E-02
C7  1.594975778884E-01  6.119187354476E-02  8.433903871389E-02
C8 -1.594975778884E-01 -6.119187354476E-02 -8.433903871389E-02
C9  4.168731109164E-02  1.626221366336E-01  5.281959335220E-02
C10 -4.168731109164E-02 -1.626221366336E-01 -5.281959335220E-02
C11 -1.317443506604E-01  1.912017518661E-01  9.302458917499E-02
C12  1.317443506604E-01 -1.912017518661E-01 -9.302458917499E-02
C13 -2.448017024379E-01  2.900106112029E-01  5.994373442066E-02
C14  2.448017024379E-01 -2.900106112029E-01 -5.994373442066E-02
C15 -1.923700038474E-01  3.691995650480E-01 -1.526133301965E-02
C16  1.923700038474E-01 -3.691995650480E-01  1.526133301965E-02
C17 -2.894849622963E-02  3.454897172522E-01 -5.564949220387E-02
C18  2.894849622963E-02 -3.454897172522E-01  5.564949220387E-02
C19  9.427579810240E-02  2.408229294315E-01 -2.391437727363E-02
C20 -9.427579810240E-02 -2.408229294315E-01  2.391437727363E-02
C21  2.610993342405E-01  2.114857607982E-01 -6.436574003496E-02
C22 -2.610993342405E-01 -2.114857607982E-01  6.436574003496E-02
C23  3.817704846919E-01  1.072856150420E-01 -3.341385499223E-02
C24 -3.817704846919E-01 -1.072856150420E-01  3.341385499223E-02
C25  3.968325965190E-01 -1.500221047847E-01  1.523194159179E-01
C26 -3.968325965190E-01  1.500221047847E-01 -1.523194159179E-01
C27  3.519265485981E-01 -2.125414077017E-01  2.178749497831E-01
C28 -3.519265485981E-01  2.125414077017E-01 -2.178749497831E-01
C29  3.267611966278E-01  4.748567917594E-01  3.079727832073E-01
C30 -3.267611966278E-01 -4.748567917594E-01 -3.079727832073E-01
C31  2.469833288751E-01  4.160397883250E-01  2.442526106527E-01
C32 -2.469833288751E-01 -4.160397883250E-01 -2.442526106527E-01
C33 -4.835824810627E-01  4.152600484464E-01  2.887772557083E-01
C34  4.835824810627E-01 -4.152600484464E-01 -2.887772557083E-01
C35  3.884075648431E-01 -2.321236699946E-01  3.928583130426E-01
C36 -3.884075648431E-01  2.321236699946E-01 -3.928583130426E-01
C37  3.328935225411E-01 -2.915510475112E-01  4.805678981217E-01
C38 -3.328935225411E-01  2.915510475112E-01 -4.805678981217E-01
C39  3.880235811493E-01 -5.443533371964E-02  3.906385396713E-01
C40 -3.880235811493E-01  5.443533371964E-02 -3.906385396713E-01
C41  3.364149549738E-02 -2.354338288713E-01  3.416915848772E-01
C42 -3.364149549738E-02  2.354338288713E-01 -3.416915848772E-01
C43 -6.239644394976E-02 -3.219190549028E-01  4.139995647736E-01
C44  6.239644394976E-02  3.219190549028E-01 -4.139995647736E-01
C45 -2.176133890663E-02 -5.688475547963E-02  3.499510515805E-01
C46  2.176133890663E-02  5.688475547963E-02 -3.499510515805E-01
H47  1.200534801439E-01  3.437788321500E-04  1.411569501836E-01
H48 -1.200534801439E-01 -3.437788321500E-04 -1.411569501836E-01
H49 -1.714573316488E-01  1.304235215437E-01  1.499625564046E-01
H50  1.714573316488E-01 -1.304235215437E-01 -1.499625564046E-01
H51 -3.762045820210E-01  3.084328597560E-01  9.031714553330E-02
H52  3.762045820210E-01 -3.084328597560E-01 -9.031714553330E-02
H53 -2.843665352145E-01  4.493373567329E-01 -3.971433248021E-02
H54  2.843665352145E-01 -4.493373567329E-01  3.971433248021E-02
H55  1.119073845581E-02  4.071753278773E-01 -1.122432087735E-01
H56 -1.119073845581E-02 -4.071753278773E-01  1.122432087735E-01
H57  3.011405266299E-01  2.695346232575E-01 -1.220390895271E-01
H58 -3.011405266299E-01 -2.695346232575E-01  1.220390895271E-01
H59  2.723253864642E-01  4.269436042781E-01  3.676719460435E-01
H60 -2.723253864642E-01 -4.269436042781E-01 -3.676719460435E-01
H61  2.897568675880E-01  4.685538508682E-01  1.844937636099E-01
H62 -2.897568675880E-01 -4.685538508682E-01 -1.844937636099E-01
H63  1.104372074328E-01  4.448692747156E-01  2.604151101322E-01
H64 -1.104372074328E-01 -4.448692747156E-01 -2.604151101322E-01
H65  2.805616125466E-01  2.883311404623E-01  2.376548076095E-01
H66 -2.805616125466E-01 -2.883311404623E-01 -2.376548076095E-01
H67 -4.568571186664E-01  2.871129039337E-01  2.835028210243E-01
H68  4.568571186664E-01 -2.871129039337E-01 -2.835028210243E-01
H69 -4.254591690414E-01  4.460630869145E-01  3.362076931732E-01
H70  4.254591690414E-01 -4.460630869145E-01 -3.362076931732E-01
H71 -4.210681284063E-01  4.632455212407E-01  2.309731204519E-01
H72  4.210681284063E-01 -4.632455212407E-01 -2.309731204519E-01
H73 -4.815318575741E-01 -2.890721800240E-01  3.689658433420E-01
H74  4.815318575741E-01  2.890721800240E-01 -3.689658433420E-01
H75  4.137174806737E-01 -2.636462289692E-01 -4.813469584063E-01
H76 -4.137174806737E-01  2.636462289692E-01  4.813469584063E-01
H77  3.371862002253E-01 -4.185816059092E-01  4.834985638534E-01
H78 -3.371862002253E-01  4.185816059092E-01 -4.834985638534E-01
H79  2.052307711389E-01 -2.360856769889E-01 -4.910531611734E-01
H80 -2.052307711389E-01  2.360856769889E-01  4.910531611734E-01
H81  2.638539072110E-01  1.185334429429E-02  4.167033970462E-01
H82 -2.638539072110E-01 -1.185334429429E-02 -4.167033970462E-01
H83  4.282935977941E-01 -1.209841371093E-02  3.283693144477E-01
H84 -4.282935977941E-01  1.209841371093E-02 -3.283693144477E-01
H85  4.728696483806E-01 -2.555300460075E-02  4.263057494880E-01
H86 -4.728696483806E-01  2.555300460075E-02 -4.263057494880E-01
H87  1.960899484604E-03 -2.699587390812E-01  2.861542159521E-01
H88 -1.960899484604E-03  2.699587390812E-01 -2.861542159521E-01
H89 -3.122472330715E-02 -4.493685099870E-01  4.073142625562E-01
H90  3.122472330715E-02  4.493685099870E-01 -4.073142625562E-01
H91 -1.976247628463E-01 -2.885716543108E-01  4.198144992816E-01
H92  1.976247628463E-01  2.885716543108E-01 -4.198144992816E-01
H93 -3.650285302092E-02 -2.927736085163E-01  4.716537411308E-01
H94  3.650285302092E-02  2.927736085163E-01 -4.716537411308E-01
H95  4.720574087532E-02  6.449460848795E-03  2.996047325710E-01
H96 -4.720574087532E-02 -6.449460848795E-03 -2.996047325710E-01
H97 -2.812336788062E-03 -1.488656001751E-02  4.066772012496E-01
H98  2.812336788062E-03  1.488656001751E-02 -4.066772012496E-01
H99 -1.552885104078E-01 -2.374788326431E-02  3.511386882021E-01
H100  1.552885104078E-01  2.374788326431E-02 -3.511386882021E-01


#===END

data_OPT_STEP_62

_symmetry_space_group_name_H-M 'P 1'
_cell_length_a      8.35738697
_cell_length_b      8.65554578
_cell_length_c     16.86724307
_cell_angle_alpha   87.266930
_cell_angle_beta   76.533848
_cell_angle_gamma   79.738468

loop_
_atom_site_label
_atom_site_fract_x
_atom_site_fract_y
_atom_site_fract_z
SI1  2.730972933069E-01 -3.007136142126E-01  3.186015328146E-01
SI2 -2.730972933069E-01  3.007136142126E-01 -3.186015328146E-01
C3  4.486735755990E-01 -7.593119070588E-02  7.631027086563E-02
C4 -4.486735755990E-01  7.593119070588E-02 -7.631027086563E-02
C5  3.296697546486E-01  3.004481576925E-02  4.381647985191E-02
C6 -3.296697546486E-01 -3.004481576925E-02 -4.381647985191E-02
C7  1.601114987279E-01  6.093968926223E-02  8.438180323875E-02
C8 -1.601114987279E-01 -6.093968926223E-02 -8.438180323875E-02
C9  4.231597227230E-02  1.623799917639E-01  5.284914242524E-02
C10 -4.231597227230E-02 -1.623799917639E-01 -5.284914242524E-02
C11 -1.308145053943E-01  1.908652608598E-01  9.309888177266E-02
C12  1.308145053943E-01 -1.908652608598E-01 -9.309888177266E-02
C13 -2.438894389438E-01  2.896607307700E-01  6.001348063176E-02
C14  2.438894389438E-01 -2.896607307700E-01 -6.001348063176E-02
C15 -1.917787870614E-01  3.688972109895E-01 -1.525362037885E-02
C16  1.917787870614E-01 -3.688972109895E-01  1.525362037885E-02
C17 -2.864570050341E-02  3.452762713672E-01 -5.568529082270E-02
C18  2.864570050341E-02 -3.452762713672E-01  5.568529082270E-02
C19  9.458540776741E-02  2.406635734968E-01 -2.393328283442E-02
C20 -9.458540776741E-02 -2.406635734968E-01  2.393328283442E-02
C21  2.611060940687E-01  2.114443165609E-01 -6.441087266141E-02
C22 -2.611060940687E-01 -2.114443165609E-01  6.441087266141E-02
C23  3.817519963164E-01  1.072553722700E-01 -3.342758861818E-02
C24 -3.817519963164E-01 -1.072553722700E-01  3.342758861818E-02
C25  3.974258733290E-01 -1.502698259535E-01  1.523968551421E-01
C26 -3.974258733290E-01  1.502698259535E-01 -1.523968551421E-01
C27  3.523779034401E-01 -2.126816666861E-01  2.180225583528E-01
C28 -3.523779034401E-01  2.126816666861E-01 -2.180225583528E-01
C29  3.260836110807E-01  4.746499140949E-01  3.082240670623E-01
C30 -3.260836110807E-01 -4.746499140949E-01 -3.082240670623E-01
C31  2.454450978056E-01  4.162135076171E-01  2.447452501326E-01
C32 -2.454450978056E-01 -4.162135076171E-01 -2.447452501326E-01
C33 -4.846488303514E-01  4.143199811098E-01  2.887708172397E-01
C34  4.846488303514E-01 -4.143199811098E-01 -2.887708172397E-01
C35  3.894632536707E-01 -2.327853567778E-01  3.929321783360E-01
C36 -3.894632536707E-01  2.327853567778E-01 -3.929321783360E-01
C37  3.336578213470E-01 -2.918022435925E-01  4.807508276580E-01
C38 -3.336578213470E-01  2.918022435925E-01 -4.807508276580E-01
C39  3.901568564235E-01 -5.516435303670E-02  3.904723803401E-01
C40 -3.901568564235E-01  5.516435303670E-02 -3.904723803401E-01
C41  3.456457517703E-02 -2.343959144322E-01  3.419425857573E-01
C42 -3.456457517703E-02  2.343959144322E-01 -3.419425857573E-01
C43 -6.159921931898E-02 -3.206874968400E-01  4.142678242694E-01
C44  6.159921931898E-02  3.206874968400E-01 -4.142678242694E-01
C45 -1.979691559781E-02 -5.558795195372E-02  3.502725201540E-01
C46  1.979691559781E-02  5.558795195372E-02 -3.502725201540E-01
H47  1.209067728835E-01  2.128888720604E-06  1.412277193382E-01
H48 -1.209067728835E-01 -2.128888720618E-06 -1.412277193382E-01
H49 -1.702812186879E-01  1.300257046133E-01  1.500786553414E-01
H50  1.702812186879E-01 -1.300257046133E-01 -1.500786553414E-01
H51 -3.750608365032E-01  3.079963248200E-01  9.042688291065E-02
H52  3.750608365032E-01 -3.079963248200E-01 -9.042688291065E-02
H53 -2.837894626031E-01  4.489762457075E-01 -3.972689993767E-02
H54  2.837894626031E-01 -4.489762457075E-01  3.972689993767E-02
H55  1.123279019733E-02  4.069759457836E-01 -1.123344658517E-01
H56 -1.123279019733E-02 -4.069759457836E-01  1.123344658517E-01
H57  3.009198502052E-01  2.695915449521E-01 -1.221105658053E-01
H58 -3.009198502052E-01 -2.695915449521E-01  1.221105658053E-01
H59  2.719387088950E-01  4.268814430071E-01  3.680204535010E-01
H60 -2.719387088950E-01 -4.268814430071E-01 -3.680204535010E-01
H61  2.877890312246E-01  4.687114594573E-01  1.849191087918E-01
H62 -2.877890312246E-01 -4.687114594573E-01 -1.849191087918E-01
H63  1.091608620130E-01  4.454009818389E-01  2.611384531477E-01
H64 -1.091608620130E-01 -4.454009818389E-01 -2.611384531477E-01
H65  2.785439828689E-01  2.884328930063E-01  2.381562635422E-01
H66 -2.785439828689E-01 -2.884328930063E-01 -2.381562635422E-01
H67 -4.585770912977E-01  2.860781893719E-01  2.835853819741E-01
H68  4.585770912977E-01 -2.860781893719E-01 -2.835853819741E-01
H69 -4.259265686680E-01  4.448517649904E-01  3.360267548121E-01
H70  4.259265686680E-01 -4.448517649904E-01 -3.360267548121E-01
H71 -4.224100853604E-01  4.621151748151E-01  2.308542708242E-01
H72  4.224100853604E-01 -4.621151748151E-01 -2.308542708242E-01
H73 -4.809206827920E-01 -2.904249540189E-01  3.691017735767E-01
H74  4.809206827920E-01  2.904249540189E-01 -3.691017735767E-01
H75  4.146588232155E-01 -2.642411685221E-01 -4.811977544566E-01
H76 -4.146588232155E-01  2.642411685221E-01  4.811977544566E-01
H77  3.371537118366E-01 -4.188850400962E-01  4.838852345150E-01
H78 -3.371537118366E-01  4.188850400962E-01 -4.838852345150E-01
H79  2.063849516094E-01 -2.356040447371E-01 -4.909503519057E-01
H80 -2.063849516094E-01  2.356040447371E-01  4.909503519057E-01
H81  2.665135590232E-01  1.167324473128E-02  4.164967843283E-01
H82 -2.665135590232E-01 -1.167324473128E-02 -4.164967843283E-01
H83  4.304647258384E-01 -1.309241141166E-02  3.281292254853E-01
H84 -4.304647258384E-01  1.309241141166E-02 -3.281292254853E-01
H85  4.752296732176E-01 -2.667483632865E-02  4.260691881364E-01
H86 -4.752296732176E-01  2.667483632865E-02 -4.260691881364E-01
H87  2.435925104113E-03 -2.685065849611E-01  2.864275808551E-01
H88 -2.435925104113E-03  2.685065849611E-01 -2.864275808551E-01
H89 -3.083203247371E-02 -4.481940634144E-01  4.076592099351E-01
H90  3.083203247371E-02  4.481940634144E-01 -4.076592099351E-01
H91 -1.965895354163E-01 -2.870003221742E-01  4.200459125221E-01
H92  1.965895354163E-01  2.870003221742E-01 -4.200459125221E-01
H93 -3.560168987896E-02 -2.916545131476E-01  4.719123973611E-01
H94  3.560168987896E-02  2.916545131476E-01 -4.719123973611E-01
H95  4.926414528038E-02  7.646944363428E-03  2.999166794836E-01
H96 -4.926414528038E-02 -7.646944363428E-03 -2.999166794836E-01
H97 -3.195933046219E-04 -1.398385926266E-02  4.069759139779E-01
H98  3.195933046219E-04  1.398385926266E-02 -4.069759139779E-01
H99 -1.531241188213E-01 -2.173058756365E-02  3.515370653079E-01
H100  1.531241188213E-01  2.173058756365E-02 -3.515370653079E-01


#===END

data_OPT_STEP_63

_symmetry_space_group_name_H-M 'P 1'
_cell_length_a      8.36095217
_cell_length_b      8.65297251
_cell_length_c     16.86632353
_cell_angle_alpha   87.263311
_cell_angle_beta   76.539364
_cell_angle_gamma   79.745810

loop_
_atom_site_label
_atom_site_fract_x
_atom_site_fract_y
_atom_site_fract_z
SI1  2.731615532034E-01 -3.006215953168E-01  3.186484912843E-01
SI2 -2.731615532034E-01  3.006215953168E-01 -3.186484912843E-01
C3  4.487296038900E-01 -7.593437736165E-02  7.632028571222E-02
C4 -4.487296038900E-01  7.593437736165E-02 -7.632028571222E-02
C5  3.297701178086E-01  3.004968949822E-02  4.383412104254E-02
C6 -3.297701178086E-01 -3.004968949822E-02 -4.383412104254E-02
C7  1.603287189103E-01  6.097774399046E-02  8.441890275369E-02
C8 -1.603287189103E-01 -6.097774399046E-02 -8.441890275369E-02
C9  4.255397061444E-02  1.623861166347E-01  5.287486274416E-02
C10 -4.255397061444E-02 -1.623861166347E-01 -5.287486274416E-02
C11 -1.304967610738E-01  1.908342329874E-01  9.313601074953E-02
C12  1.304967610738E-01 -1.908342329874E-01 -9.313601074953E-02
C13 -2.435722181365E-01  2.895639999863E-01  6.003346868495E-02
C14  2.435722181365E-01 -2.895639999863E-01 -6.003346868495E-02
C15 -1.915411767883E-01  3.687757336912E-01 -1.525519070498E-02
C16  1.915411767883E-01 -3.687757336912E-01  1.525519070498E-02
C17 -2.848591595759E-02  3.452038090073E-01 -5.569377838231E-02
C18  2.848591595759E-02 -3.452038090073E-01  5.569377838231E-02
C19  9.473257777226E-02  2.406263069909E-01 -2.393268112640E-02
C20 -9.473257777226E-02 -2.406263069909E-01  2.393268112640E-02
C21  2.611543184710E-01  2.114108626715E-01 -6.442258493278E-02
C22 -2.611543184710E-01 -2.114108626715E-01  6.442258493278E-02
C23  3.817911246015E-01  1.072629619861E-01 -3.342595307498E-02
C24 -3.817911246015E-01 -1.072629619861E-01  3.342595307498E-02
C25  3.975518795347E-01 -1.502333412417E-01  1.524193631147E-01
C26 -3.975518795347E-01  1.502333412417E-01 -1.524193631147E-01
C27  3.524504980309E-01 -2.125895512376E-01  2.180523600637E-01
C28 -3.524504980309E-01  2.125895512376E-01 -2.180523600637E-01
C29  3.259160071823E-01  4.747046725164E-01  3.082646532967E-01
C30 -3.259160071823E-01 -4.747046725164E-01 -3.082646532967E-01
C31  2.451419320179E-01  4.164012563355E-01  2.448073188535E-01
C32 -2.451419320179E-01 -4.164012563355E-01 -2.448073188535E-01
C33 -4.849371347620E-01  4.142539784944E-01  2.887812187510E-01
C34  4.849371347620E-01 -4.142539784944E-01 -2.887812187510E-01
C35  3.896496014671E-01 -2.328741446526E-01  3.929679445184E-01
C36 -3.896496014671E-01  2.328741446526E-01 -3.929679445184E-01
C37  3.337476500840E-01 -2.917758522681E-01  4.808065081673E-01
C38 -3.337476500840E-01  2.917758522681E-01 -4.808065081673E-01
C39  3.907146723103E-01 -5.525471670195E-02  3.904461029334E-01
C40 -3.907146723103E-01  5.525471670195E-02 -3.904461029334E-01
C41  3.476747053663E-02 -2.341214850543E-01  3.419941951641E-01
C42 -3.476747053663E-02  2.341214850543E-01 -3.419941951641E-01
C43 -6.144589034362E-02 -3.203833295608E-01  4.143230803888E-01
C44  6.144589034362E-02  3.203833295608E-01 -4.143230803888E-01
C45 -1.939780085854E-02 -5.527869022819E-02  3.503181633233E-01
C46  1.939780085854E-02  5.527869022819E-02 -3.503181633233E-01
H47  1.211738519111E-01  6.313446356441E-05  1.412870882392E-01
H48 -1.211738519111E-01 -6.313446356442E-05 -1.412870882392E-01
H49 -1.698972186143E-01  1.300014720812E-01  1.501288184056E-01
H50  1.698972186143E-01 -1.300014720812E-01 -1.501288184056E-01
H51 -3.746829465061E-01  3.078722470028E-01  9.043370928352E-02
H52  3.746829465061E-01 -3.078722470028E-01 -9.043370928352E-02
H53 -2.835647655648E-01  4.488326444121E-01 -3.971727602299E-02
H54  2.835647655648E-01 -4.488326444121E-01  3.971727602299E-02
H55  1.132854286587E-02  4.069057122927E-01 -1.123568381750E-01
H56 -1.132854286587E-02 -4.069057122927E-01  1.123568381750E-01
H57  3.009096799185E-01  2.695415562537E-01 -1.221427630898E-01
H58 -3.009096799185E-01 -2.695415562537E-01  1.221427630898E-01
H59  2.718092012635E-01  4.269181398358E-01  3.680678667688E-01
H60 -2.718092012635E-01 -4.269181398358E-01 -3.680678667688E-01
H61  2.875055253738E-01  4.688890692942E-01  1.849706051949E-01
H62 -2.875055253738E-01 -4.688890692942E-01 -1.849706051949E-01
H63  1.089268209660E-01  4.457504087213E-01  2.612107083987E-01
H64 -1.089268209660E-01 -4.457504087213E-01 -2.612107083987E-01
H65  2.780436793795E-01  2.885754596614E-01  2.382263511189E-01
H66 -2.780436793795E-01 -2.885754596614E-01 -2.382263511189E-01
H67 -4.589864238832E-01  2.859947122287E-01  2.835450338337E-01
H68  4.589864238832E-01 -2.859947122287E-01 -2.835450338337E-01
H69 -4.261476993494E-01  4.445972924609E-01  3.360423382235E-01
H70  4.261476993494E-01 -4.445972924609E-01 -3.360423382235E-01
H71 -4.227325790992E-01  4.621649813082E-01  2.308825124727E-01
H72  4.227325790992E-01 -4.621649813082E-01 -2.308825124727E-01
H73 -4.808621939341E-01 -2.907598414229E-01  3.691533315240E-01
H74  4.808621939341E-01  2.907598414229E-01 -3.691533315240E-01
H75  4.147479533875E-01 -2.642706681315E-01 -4.811463231599E-01
H76 -4.147479533875E-01  2.642706681315E-01  4.811463231599E-01
H77  3.370677126041E-01 -4.188498774404E-01  4.839919937744E-01
H78 -3.370677126041E-01  4.188498774404E-01 -4.839919937744E-01
H79  2.065973528018E-01 -2.354252233494E-01 -4.909198627090E-01
H80 -2.065973528018E-01  2.354252233494E-01  4.909198627090E-01
H81  2.672597798578E-01  1.177921733671E-02  4.165174878992E-01
H82 -2.672597798578E-01 -1.177921733671E-02 -4.165174878992E-01
H83  4.309228386875E-01 -1.327537779157E-02  3.280761861867E-01
H84 -4.309228386875E-01  1.327537779157E-02 -3.280761861867E-01
H85  4.759656123669E-01 -2.687064329930E-02  4.259662807456E-01
H86 -4.759656123669E-01  2.687064329930E-02 -4.259662807456E-01
H87  2.586088138997E-03 -2.681588188642E-01  2.864787471957E-01
H88 -2.586088138997E-03  2.681588188642E-01 -2.864787471957E-01
H89 -3.089100826484E-02 -4.479561884319E-01  4.076961820601E-01
H90  3.089100826484E-02  4.479561884319E-01 -4.076961820601E-01
H91 -1.963816666500E-01 -2.864941519868E-01  4.201074947070E-01
H92  1.963816666500E-01  2.864941519868E-01 -4.201074947070E-01
H93 -3.534698449314E-02 -2.914666331514E-01  4.719732302334E-01
H94  3.534698449314E-02  2.914666331514E-01 -4.719732302334E-01
H95  4.962470315430E-02  7.910928744157E-03  2.999311078960E-01
H96 -4.962470315430E-02 -7.910928744157E-03 -2.999311078960E-01
H97  2.333257180236E-04 -1.370928207289E-02  4.069965158991E-01
H98 -2.333257180236E-04  1.370928207289E-02 -4.069965158991E-01
H99 -1.526610597660E-01 -2.132136795228E-02  3.516289041094E-01
H100  1.526610597660E-01  2.132136795228E-02 -3.516289041094E-01


#===END

data_OPT_STEP_64

_symmetry_space_group_name_H-M 'P 1'
_cell_length_a      8.36788758
_cell_length_b      8.64721268
_cell_length_c     16.86658781
_cell_angle_alpha   87.271642
_cell_angle_beta   76.553771
_cell_angle_gamma   79.762260

loop_
_atom_site_label
_atom_site_fract_x
_atom_site_fract_y
_atom_site_fract_z
SI1  2.733930176661E-01 -3.005332065901E-01  3.186873690117E-01
SI2 -2.733930176661E-01  3.005332065901E-01 -3.186873690117E-01
C3  4.488686492942E-01 -7.589876948162E-02  7.635236144221E-02
C4 -4.488686492942E-01  7.589876948162E-02 -7.635236144221E-02
C5  3.299450698725E-01  3.003270902699E-02  4.386293538072E-02
C6 -3.299450698725E-01 -3.003270902699E-02 -4.386293538072E-02
C7  1.606850977921E-01  6.098254227930E-02  8.447596982267E-02
C8 -1.606850977921E-01 -6.098254227930E-02 -8.447596982267E-02
C9  4.296158608170E-02  1.623162395241E-01  5.291284762636E-02
C10 -4.296158608170E-02 -1.623162395241E-01 -5.291284762636E-02
C11 -1.298904578892E-01  1.907484233413E-01  9.320293305887E-02
C12  1.298904578892E-01 -1.907484233413E-01 -9.320293305887E-02
C13 -2.429148810680E-01  2.894046516305E-01  6.007637598106E-02
C14  2.429148810680E-01 -2.894046516305E-01 -6.007637598106E-02
C15 -1.910498427000E-01  3.685400043787E-01 -1.525711345551E-02
C16  1.910498427000E-01 -3.685400043787E-01  1.525711345551E-02
C17 -2.819577591354E-02  3.449870967979E-01 -5.572104958345E-02
C18  2.819577591354E-02 -3.449870967979E-01  5.572104958345E-02
C19  9.497586930779E-02  2.404642787143E-01 -2.394398580665E-02
C20 -9.497586930779E-02 -2.404642787143E-01  2.394398580665E-02
C21  2.612148448907E-01  2.112519315876E-01 -6.445422285913E-02
C22 -2.612148448907E-01 -2.112519315876E-01  6.445422285913E-02
C23  3.818220677305E-01  1.071994554534E-01 -3.343622717968E-02
C24 -3.818220677305E-01 -1.071994554534E-01  3.343622717968E-02
C25  3.978294667744E-01 -1.501820823663E-01  1.524498657753E-01
C26 -3.978294667744E-01  1.501820823663E-01 -1.524498657753E-01
C27  3.527242780117E-01 -2.124890899487E-01  2.180744969312E-01
C28 -3.527242780117E-01  2.124890899487E-01 -2.180744969312E-01
C29  3.256775524622E-01  4.746703578902E-01  3.082861822768E-01
C30 -3.256775524622E-01 -4.746703578902E-01 -3.082861822768E-01
C31  2.446160559569E-01  4.165710689138E-01  2.448922769687E-01
C32 -2.446160559569E-01 -4.165710689138E-01 -2.448922769687E-01
C33 -4.854134829757E-01  4.139885310826E-01  2.886952260427E-01
C34  4.854134829757E-01 -4.139885310826E-01 -2.886952260427E-01
C35  3.900517408961E-01 -2.330524046148E-01  3.929914507929E-01
C36 -3.900517408961E-01  2.330524046148E-01 -3.929914507929E-01
C37  3.340009504068E-01 -2.917420752927E-01  4.808399965314E-01
C38 -3.340009504068E-01  2.917420752927E-01 -4.808399965314E-01
C39  3.917136298846E-01 -5.543388981874E-02  3.903617423685E-01
C40 -3.917136298846E-01  5.543388981874E-02 -3.903617423685E-01
C41  3.529300913140E-02 -2.335922687272E-01  3.420256900388E-01
C42 -3.529300913140E-02  2.335922687272E-01 -3.420256900388E-01
C43 -6.107384326770E-02 -3.197090442066E-01  4.143618973477E-01
C44  6.107384326770E-02  3.197090442066E-01 -4.143618973477E-01
C45 -1.838391643613E-02 -5.462070522854E-02  3.503174069257E-01
C46  1.838391643613E-02  5.462070522854E-02 -3.503174069257E-01
H47  1.216224023681E-01  1.587283821888E-04  1.413942250735E-01
H48 -1.216224023681E-01 -1.587283821888E-04 -1.413942250735E-01
H49 -1.691539189031E-01  1.299755528959E-01  1.502276227139E-01
H50  1.691539189031E-01 -1.299755528959E-01 -1.502276227139E-01
H51 -3.738690165598E-01  3.077510166534E-01  9.046253969568E-02
H52  3.738690165598E-01 -3.077510166534E-01 -9.046253969568E-02
H53 -2.830719328781E-01  4.485985959873E-01 -3.968802478186E-02
H54  2.830719328781E-01 -4.485985959873E-01  3.968802478186E-02
H55  1.149121637966E-02  4.066680406623E-01 -1.124116355816E-01
H56 -1.149121637966E-02 -4.066680406623E-01  1.124116355816E-01
H57  3.008556227183E-01  2.693024644355E-01 -1.222204306855E-01
H58 -3.008556227183E-01 -2.693024644355E-01  1.222204306855E-01
H59  2.716863835590E-01  4.268743869829E-01  3.680962712109E-01
H60 -2.716863835590E-01 -4.268743869829E-01 -3.680962712109E-01
H61  2.869205098415E-01  4.690651074416E-01  1.850512673274E-01
H62 -2.869205098415E-01 -4.690651074416E-01 -1.850512673274E-01
H63  1.085455413910E-01  4.461694275056E-01  2.613554582840E-01
H64 -1.085455413910E-01 -4.461694275056E-01 -2.613554582840E-01
H65  2.772038415083E-01  2.886628893450E-01  2.382985542033E-01
H66 -2.772038415083E-01 -2.886628893450E-01 -2.382985542033E-01
H67 -4.596877330097E-01  2.856780625969E-01  2.834836541990E-01
H68  4.596877330097E-01 -2.856780625969E-01 -2.834836541990E-01
H69 -4.264433705588E-01  4.442898848806E-01  3.358808583260E-01
H70  4.264433705588E-01 -4.442898848806E-01 -3.358808583260E-01
H71 -4.233390705035E-01  4.618201200041E-01  2.307655072739E-01
H72  4.233390705035E-01 -4.618201200041E-01 -2.307655072739E-01
H73 -4.807282951112E-01 -2.913194481910E-01  3.692210418830E-01
H74  4.807282951112E-01  2.913194481910E-01 -3.692210418830E-01
H75  4.150406431841E-01 -2.644131840394E-01 -4.811078034346E-01
H76 -4.150406431841E-01  2.644131840394E-01  4.811078034346E-01
H77  3.368824320175E-01 -4.188182215640E-01  4.840876764714E-01
H78 -3.368824320175E-01  4.188182215640E-01 -4.840876764714E-01
H79  2.071128983466E-01 -2.350391679021E-01 -4.909335368407E-01
H80 -2.071128983466E-01  2.350391679021E-01  4.909335368407E-01
H81  2.685757797654E-01  1.195879094691E-02  4.164569831614E-01
H82 -2.685757797654E-01 -1.195879094691E-02 -4.164569831614E-01
H83  4.318583244601E-01 -1.359015118481E-02  3.279636453593E-01
H84 -4.318583244601E-01  1.359015118481E-02 -3.279636453593E-01
H85  4.771746185040E-01 -2.722438025392E-02  4.257709278726E-01
H86 -4.771746185040E-01  2.722438025392E-02 -4.257709278726E-01
H87  3.016599518770E-03 -2.675357459061E-01  2.865176458601E-01
H88 -3.016599518770E-03  2.675357459061E-01 -2.865176458601E-01
H89 -3.086084411627E-02 -4.473794351685E-01  4.077608312033E-01
H90  3.086084411627E-02  4.473794351685E-01 -4.077608312033E-01
H91 -1.958547962381E-01 -2.855314197000E-01  4.201217608235E-01
H92  1.958547962381E-01  2.855314197000E-01 -4.201217608235E-01
H93 -3.491453265755E-02 -2.908569634006E-01  4.720068923559E-01
H94  3.491453265755E-02  2.908569634006E-01 -4.720068923559E-01
H95  5.062487860474E-02  8.452019431820E-03  2.998829652201E-01
H96 -5.062487860474E-02 -8.452019431820E-03 -2.998829652201E-01
H97  1.562941295004E-03 -1.309568709853E-02  4.069404304384E-01
H98 -1.562941295004E-03  1.309568709853E-02 -4.069404304384E-01
H99 -1.515301745703E-01 -2.040658844283E-02  3.517086714243E-01
H100  1.515301745703E-01  2.040658844283E-02 -3.517086714243E-01


#===END

data_OPT_STEP_65

_symmetry_space_group_name_H-M 'P 1'
_cell_length_a      8.36296652
_cell_length_b      8.65140224
_cell_length_c     16.86640042
_cell_angle_alpha   87.265037
_cell_angle_beta   76.541338
_cell_angle_gamma   79.752882

loop_
_atom_site_label
_atom_site_fract_x
_atom_site_fract_y
_atom_site_fract_z
SI1  2.732009711087E-01 -3.005814657326E-01  3.186719278893E-01
SI2 -2.732009711087E-01  3.005814657326E-01 -3.186719278893E-01
C3  4.487624290525E-01 -7.590959728914E-02  7.634073127725E-02
C4 -4.487624290525E-01  7.590959728914E-02 -7.634073127725E-02
C5  3.298155630502E-01  3.004736713478E-02  4.384981109548E-02
C6 -3.298155630503E-01 -3.004736713478E-02 -4.384981109548E-02
C7  1.604264881368E-01  6.100057504824E-02  8.444674774774E-02
C8 -1.604264881368E-01 -6.100057504824E-02 -8.444674774774E-02
C9  4.267904416388E-02  1.623795345341E-01  5.288936624901E-02
C10 -4.267904416388E-02 -1.623795345341E-01 -5.288936624901E-02
C11 -1.303083740879E-01  1.908324620669E-01  9.316272402855E-02
C12  1.303083740879E-01 -1.908324620669E-01 -9.316272402855E-02
C13 -2.433477363868E-01  2.895507729044E-01  6.004768558757E-02
C14  2.433477363868E-01 -2.895507729044E-01 -6.004768558757E-02
C15 -1.913617798879E-01  3.687234204818E-01 -1.526100861904E-02
C16  1.913617798879E-01 -3.687234204818E-01  1.526100861904E-02
C17 -2.837736686855E-02  3.451422869749E-01 -5.571273456797E-02
C18  2.837736686855E-02 -3.451422869749E-01  5.571273456797E-02
C19  9.481229244786E-02  2.405652484589E-01 -2.394460850969E-02
C20 -9.481229244786E-02 -2.405652484589E-01  2.394460850969E-02
C21  2.611769637629E-01  2.113325970418E-01 -6.444478115918E-02
C22 -2.611769637629E-01 -2.113325970418E-01  6.444478115918E-02
C23  3.818030161419E-01  1.072301082447E-01 -3.343426200416E-02
C24 -3.818030161419E-01 -1.072301082447E-01  3.343426200416E-02
C25  3.976310916557E-01 -1.501926983805E-01  1.524375847838E-01
C26 -3.976310916557E-01  1.501926983805E-01 -1.524375847838E-01
C27  3.525129669476E-01 -2.125132134581E-01  2.180645691364E-01
C28 -3.525129669476E-01  2.125132134581E-01 -2.180645691364E-01
C29  3.258978256802E-01  4.747257395719E-01  3.082802981361E-01
C30 -3.258978256802E-01 -4.747257395719E-01 -3.082802981361E-01
C31  2.450580072374E-01  4.164795910239E-01  2.448395302800E-01
C32 -2.450580072374E-01 -4.164795910239E-01 -2.448395302800E-01
C33 -4.850210526483E-01  4.142706141110E-01  2.887589072690E-01
C34  4.850210526483E-01 -4.142706141110E-01 -2.887589072690E-01
C35  3.896839626258E-01 -2.328722920011E-01  3.929933232439E-01
C36 -3.896839626258E-01  2.328722920011E-01 -3.929933232439E-01
C37  3.337713373374E-01 -2.917012305555E-01  4.808335283695E-01
C38 -3.337713373374E-01  2.917012305555E-01 -4.808335283695E-01
C39  3.908724630447E-01 -5.526133810761E-02  3.904257349394E-01
C40 -3.908724630447E-01  5.526133810761E-02 -3.904257349394E-01
C41  3.489429979537E-02 -2.340193376993E-01  3.419948884484E-01
C42 -3.489429979537E-02  2.340193376993E-01 -3.419948884484E-01
C43 -6.135262162421E-02 -3.202476402185E-01  4.143320386452E-01
C44  6.135262162421E-02  3.202476402185E-01 -4.143320386452E-01
C45 -1.918826718843E-02 -5.515824982589E-02  3.502912826204E-01
C46  1.918826718843E-02  5.515824982589E-02 -3.502912826204E-01
H47  1.212853234951E-01  1.428482633970E-04  1.413445735741E-01
H48 -1.212853234951E-01 -1.428482633970E-04 -1.413445735741E-01
H49 -1.696682943688E-01  1.300271457280E-01  1.501679935878E-01
H50  1.696682943688E-01 -1.300271457280E-01 -1.501679935878E-01
H51 -3.744062333139E-01  3.079092085546E-01  9.042991933060E-02
H52  3.744062333139E-01 -3.079092085546E-01 -9.042991933060E-02
H53 -2.833846858156E-01  4.488184140251E-01 -3.969353981262E-02
H54  2.833846858156E-01 -4.488184140251E-01  3.969353981262E-02
H55  1.140359598692E-02  4.068398331643E-01 -1.123856883554E-01
H56 -1.140359598692E-02 -4.068398331643E-01  1.123856883554E-01
H57  3.009007675846E-01  2.694086358605E-01 -1.221932659622E-01
H58 -3.009007675846E-01 -2.694086358605E-01  1.221932659622E-01
H59  2.718430126225E-01  4.269118295884E-01  3.680824390913E-01
H60 -2.718430126225E-01 -4.269118295884E-01 -3.680824390913E-01
H61  2.873941970085E-01  4.689866644347E-01  1.850037682344E-01
H62 -2.873941970085E-01 -4.689866644347E-01 -1.850037682344E-01
H63  1.088829008195E-01  4.458809235813E-01  2.612608089160E-01
H64 -1.088829008195E-01 -4.458809235813E-01 -2.612608089160E-01
H65  2.778892394929E-01  2.886399278822E-01  2.382494301089E-01
H66 -2.778892394929E-01 -2.886399278822E-01 -2.382494301089E-01
H67 -4.590882107174E-01  2.860105914568E-01  2.835443338173E-01
H68  4.590882107174E-01 -2.860105914568E-01 -2.835443338173E-01
H69 -4.261923302960E-01  4.446499357370E-01  3.359863539889E-01
H70  4.261923302960E-01 -4.446499357370E-01 -3.359863539889E-01
H71 -4.228773329340E-01  4.621404182054E-01  2.308429381228E-01
H72  4.228773329340E-01 -4.621404182054E-01 -2.308429381228E-01
H73 -4.809072270082E-01 -2.908474393611E-01  3.691895602032E-01
H74  4.809072270082E-01  2.908474393611E-01 -3.691895602032E-01
H75  4.147681279578E-01 -2.642221772392E-01 -4.811193693286E-01
H76 -4.147681279578E-01  2.642221772392E-01  4.811193693286E-01
H77  3.369783167773E-01 -4.187597848070E-01  4.840421895068E-01
H78 -3.369783167773E-01  4.187597848070E-01 -4.840421895068E-01
H79  2.067048045815E-01 -2.352684475744E-01 -4.909051063943E-01
H80 -2.067048045815E-01  2.352684475744E-01  4.909051063943E-01
H81  2.675057248876E-01  1.185167127726E-02  4.165199598564E-01
H82 -2.675057248876E-01 -1.185167127726E-02 -4.165199598564E-01
H83  4.310007535237E-01 -1.332418857405E-02  3.280406133231E-01
H84 -4.310007535237E-01  1.332418857405E-02 -3.280406133231E-01
H85  4.762022618977E-01 -2.687762655674E-02  4.258785225682E-01
H86 -4.762022618977E-01  2.687762655674E-02 -4.258785225682E-01
H87  2.724697189206E-03 -2.680552936900E-01  2.864794518167E-01
H88 -2.724697189206E-03  2.680552936900E-01 -2.864794518167E-01
H89 -3.085820203522E-02 -4.478475634299E-01  4.077261068588E-01
H90  3.085820203522E-02  4.478475634299E-01 -4.077261068588E-01
H91 -1.962370175101E-01 -2.863061009030E-01  4.200925929526E-01
H92  1.962370175101E-01  2.863061009030E-01 -4.200925929526E-01
H93 -3.528032762719E-02 -2.913200689575E-01  4.719823276847E-01
H94  3.528032762719E-02  2.913200689575E-01 -4.719823276847E-01
H95  4.979620047899E-02  8.001534778836E-03  2.998776556821E-01
H96 -4.979620047899E-02 -8.001534778836E-03 -2.998776556821E-01
H97  5.380443100971E-04 -1.357660879999E-02  4.069436091538E-01
H98 -5.380443100971E-04  1.357660879999E-02 -4.069436091538E-01
H99 -1.524214022014E-01 -2.117719323220E-02  3.516345548926E-01
H100  1.524214022014E-01  2.117719323220E-02 -3.516345548926E-01


#===END

data_OPT_STEP_66

_symmetry_space_group_name_H-M 'P 1'
_cell_length_a      8.36680113
_cell_length_b      8.64818284
_cell_length_c     16.86720336
_cell_angle_alpha   87.270806
_cell_angle_beta   76.540408
_cell_angle_gamma   79.763444

loop_
_atom_site_label
_atom_site_fract_x
_atom_site_fract_y
_atom_site_fract_z
SI1  2.732855078599E-01 -3.005271235120E-01  3.187015432109E-01
SI2 -2.732855078599E-01  3.005271235120E-01 -3.187015432109E-01
C3  4.488244405607E-01 -7.583726917355E-02  7.637055081750E-02
C4 -4.488244405607E-01  7.583726917355E-02 -7.637055081750E-02
C5  3.299159669586E-01  3.007559846115E-02  4.386659502737E-02
C6 -3.299159669586E-01 -3.007559846115E-02 -4.386659502737E-02
C7  1.606174531936E-01  6.106164926197E-02  8.447608873039E-02
C8 -1.606174531936E-01 -6.106164926197E-02 -8.447608873039E-02
C9  4.290364034702E-02  1.623752217247E-01  5.290163969748E-02
C10 -4.290364034702E-02 -1.623752217247E-01 -5.290163969748E-02
C11 -1.299926613118E-01  1.908170449860E-01  9.318419989657E-02
C12  1.299926613118E-01 -1.908170449860E-01 -9.318419989657E-02
C13 -2.429920741979E-01  2.894618393398E-01  6.005081037689E-02
C14  2.429920741979E-01 -2.894618393398E-01 -6.005081037689E-02
C15 -1.910475943524E-01  3.686234423745E-01 -1.527233855730E-02
C16  1.910475943524E-01 -3.686234423745E-01  1.527233855730E-02
C17 -2.815389624555E-02  3.450538485702E-01 -5.573628292546E-02
C18  2.815389624555E-02 -3.450538485702E-01  5.573628292546E-02
C19  9.499055449981E-02  2.405098369481E-01 -2.395882265964E-02
C20 -9.499055449981E-02 -2.405098369481E-01  2.395882265964E-02
C21  2.612669166846E-01  2.112543073311E-01 -6.446921710854E-02
C22 -2.612669166846E-01 -2.112543073311E-01  6.446921710854E-02
C23  3.818425079745E-01  1.071818652637E-01 -3.344810407959E-02
C24 -3.818425079745E-01 -1.071818652637E-01  3.344810407959E-02
C25  3.977412492149E-01 -1.501025898568E-01  1.524685893781E-01
C26 -3.977412492149E-01  1.501025898568E-01 -1.524685893781E-01
C27  3.526314148787E-01 -2.124329193293E-01  2.180939840332E-01
C28 -3.526314148787E-01  2.124329193293E-01 -2.180939840332E-01
C29  3.257756123672E-01  4.747063260719E-01  3.082809693723E-01
C30 -3.257756123672E-01 -4.747063260719E-01 -3.082809693723E-01
C31  2.448319966406E-01  4.165619084819E-01  2.448596251493E-01
C32 -2.448319966406E-01 -4.165619084819E-01 -2.448596251493E-01
C33 -4.852589647056E-01  4.141327969744E-01  2.887038957672E-01
C34  4.852589647056E-01 -4.141327969744E-01 -2.887038957672E-01
C35  3.898108767217E-01 -2.329234138011E-01  3.930190669429E-01
C36 -3.898108767217E-01  2.329234138011E-01 -3.930190669429E-01
C37  3.337834131014E-01 -2.916297254778E-01  4.808670201610E-01
C38 -3.337834131014E-01  2.916297254778E-01 -4.808670201610E-01
C39  3.913280791771E-01 -5.530250828564E-02  3.903964575382E-01
C40 -3.913280791771E-01  5.530250828564E-02 -3.903964575382E-01
C41  3.512689347855E-02 -2.337923359200E-01  3.420238829019E-01
C42 -3.512689347855E-02  2.337923359200E-01 -3.420238829019E-01
C43 -6.117061101286E-02 -3.199797993457E-01  4.143660455711E-01
C44  6.117061101286E-02  3.199797993457E-01 -4.143660455711E-01
C45 -1.874690795413E-02 -5.486636218685E-02  3.503121874887E-01
C46  1.874690795413E-02  5.486636218685E-02 -3.503121874887E-01
H47  1.215217576154E-01  2.970176984600E-04  1.414089081335E-01
H48 -1.215217576154E-01 -2.970176984600E-04 -1.414089081335E-01
H49 -1.693051280379E-01  1.300430101048E-01  1.502000336619E-01
H50  1.693051280379E-01 -1.300430101048E-01 -1.502000336619E-01
H51 -3.740112627819E-01  3.077930852997E-01  9.040165539924E-02
H52  3.740112627819E-01 -3.077930852997E-01 -9.040165539924E-02
H53 -2.830817456855E-01  4.487181271216E-01 -3.966670776099E-02
H54  2.830817456855E-01 -4.487181271216E-01  3.966670776099E-02
H55  1.159557486910E-02  4.067436106790E-01 -1.124145575994E-01
H56 -1.159557486910E-02 -4.067436106790E-01  1.124145575994E-01
H57  3.009531653767E-01  2.692593379301E-01 -1.222465898157E-01
H58 -3.009531653767E-01 -2.692593379301E-01  1.222465898157E-01
H59  2.717560122233E-01  4.268672201716E-01  3.680794401221E-01
H60 -2.717560122233E-01 -4.268672201716E-01 -3.680794401221E-01
H61  2.871539568580E-01  4.690922540547E-01  1.850276792872E-01
H62 -2.871539568580E-01 -4.690922540547E-01 -1.850276792872E-01
H63  1.087278929973E-01  4.460701057144E-01  2.613134701406E-01
H64 -1.087278929973E-01 -4.460701057144E-01 -2.613134701406E-01
H65  2.775170734143E-01  2.886781069622E-01  2.382492622840E-01
H66 -2.775170734143E-01 -2.886781069622E-01 -2.382492622840E-01
H67 -4.594586733738E-01  2.858294054631E-01  2.834420426996E-01
H68  4.594586733738E-01 -2.858294054631E-01 -2.834420426996E-01
H69 -4.263562571312E-01  4.443930023732E-01  3.359237399480E-01
H70  4.263562571312E-01 -4.443930023732E-01 -3.359237399480E-01
H71 -4.231472578366E-01  4.620598057344E-01  2.308000055658E-01
H72  4.231472578366E-01 -4.620598057344E-01 -2.308000055658E-01
H73 -4.809129191169E-01 -2.911003660820E-01  3.692381208717E-01
H74  4.809129191169E-01  2.911003660820E-01 -3.692381208717E-01
H75  4.148499717347E-01 -2.643175568560E-01 -4.810950926540E-01
H76 -4.148499717347E-01  2.643175568560E-01  4.810950926540E-01
H77  3.366683150223E-01 -4.186719780774E-01  4.841113160161E-01
H78 -3.366683150223E-01  4.186719780774E-01 -4.841113160161E-01
H79  2.068765932095E-01 -2.349450172220E-01 -4.908853208354E-01
H80 -2.068765932095E-01  2.349450172220E-01  4.908853208354E-01
H81  2.681336716596E-01  1.200787151854E-02  4.165463718592E-01
H82 -2.681336716596E-01 -1.200787151854E-02 -4.165463718592E-01
H83  4.313601132243E-01 -1.341432447333E-02  3.279961545094E-01
H84 -4.313601132243E-01  1.341432447333E-02 -3.279961545094E-01
H85  4.768574794400E-01 -2.703442024307E-02  4.257552398361E-01
H86 -4.768574794400E-01  2.703442024307E-02 -4.257552398361E-01
H87  2.921032331732E-03 -2.678030300161E-01  2.865165919649E-01
H88 -2.921032331732E-03  2.678030300161E-01 -2.865165919649E-01
H89 -3.084639149262E-02 -4.476440537761E-01  4.077558520958E-01
H90  3.084639149262E-02  4.476440537761E-01 -4.077558520958E-01
H91 -1.959838120176E-01 -2.859043324434E-01  4.201293496852E-01
H92  1.959838120176E-01  2.859043324434E-01 -4.201293496852E-01
H93 -3.502621269419E-02 -2.910935124666E-01  4.720112337389E-01
H94  3.502621269419E-02  2.910935124666E-01 -4.720112337389E-01
H95  5.018281402868E-02  8.245402489038E-03  2.998587480964E-01
H96 -5.018281402868E-02 -8.245402489038E-03 -2.998587480964E-01
H97  1.174683512477E-03 -1.328757786846E-02  4.069231635474E-01
H98 -1.174683512476E-03  1.328757786846E-02 -4.069231635474E-01
H99 -1.519387053055E-01 -2.079328847418E-02  3.517292145673E-01
H100  1.519387053055E-01  2.079328847418E-02 -3.517292145673E-01


#===END

data_OPT_STEP_67

_symmetry_space_group_name_H-M 'P 1'
_cell_length_a      8.36394232
_cell_length_b      8.65064180
_cell_length_c     16.86656902
_cell_angle_alpha   87.266380
_cell_angle_beta   76.540720
_cell_angle_gamma   79.756738

loop_
_atom_site_label
_atom_site_fract_x
_atom_site_fract_y
_atom_site_fract_z
SI1  2.732166671413E-01 -3.005622456291E-01  3.186848692675E-01
SI2 -2.732166671413E-01  3.005622456291E-01 -3.186848692675E-01
C3  4.487819176529E-01 -7.587302688542E-02  7.635569950430E-02
C4 -4.487819176529E-01  7.587302688542E-02 -7.635569950430E-02
C5  3.298465812870E-01  3.006364720060E-02  4.385583048418E-02
C6 -3.298465812870E-01 -3.006364720060E-02 -4.385583048418E-02
C7  1.604817302215E-01  6.103424093506E-02  8.445571116327E-02
C8 -1.604817302215E-01 -6.103424093506E-02 -8.445571116327E-02
C9  4.274336559593E-02  1.623879839998E-01  5.288999071376E-02
C10 -4.274336559593E-02 -1.623879839998E-01 -5.288999071376E-02
C11 -1.302195478688E-01  1.908397104731E-01  9.316482459602E-02
C12  1.302195478688E-01 -1.908397104731E-01 -9.316482459602E-02
C13 -2.432413232229E-01  2.895321290162E-01  6.004138851360E-02
C14  2.432413232229E-01 -2.895321290162E-01 -6.004138851360E-02
C15 -1.912569022152E-01  3.687116462258E-01 -1.526955918363E-02
C16  1.912569022152E-01 -3.687116462258E-01  1.526955918363E-02
C17 -2.829858579124E-02  3.451318538475E-01 -5.572550851490E-02
C18  2.829858579124E-02 -3.451318538475E-01  5.572550851490E-02
C19  9.487176427372E-02  2.405579198681E-01 -2.395398479605E-02
C20 -9.487176427372E-02 -2.405579198681E-01  2.395398479605E-02
C21  2.612118022983E-01  2.113084157443E-01 -6.445744467603E-02
C22 -2.612118022983E-01 -2.113084157443E-01  6.445744467603E-02
C23  3.818164644294E-01  1.072087833486E-01 -3.344281599097E-02
C24 -3.818164644294E-01 -1.072087833486E-01  3.344281599097E-02
C25  3.976614189418E-01 -1.501497714435E-01  1.524509227051E-01
C26 -3.976614189418E-01  1.501497714435E-01 -1.524509227051E-01
C27  3.525431998822E-01 -2.124803499884E-01  2.180764869505E-01
C28 -3.525431998822E-01  2.124803499884E-01 -2.180764869505E-01
C29  3.258828358456E-01  4.747285108796E-01  3.082845920440E-01
C30 -3.258828358456E-01 -4.747285108796E-01 -3.082845920440E-01
C31  2.450219002135E-01  4.165070991648E-01  2.448465878566E-01
C32 -2.450219002135E-01 -4.165070991648E-01 -2.448465878566E-01
C33 -4.850624914353E-01  4.142532953978E-01  2.887461410031E-01
C34  4.850624914353E-01 -4.142532953978E-01 -2.887461410031E-01
C35  3.896890003742E-01 -2.328603832501E-01  3.930070362751E-01
C36 -3.896890003742E-01  2.328603832501E-01 -3.930070362751E-01
C37  3.337580646572E-01 -2.916529697411E-01  4.808491637739E-01
C38 -3.337580646572E-01  2.916529697411E-01 -4.808491637739E-01
C39  3.909544598501E-01 -5.524984061723E-02  3.904202657205E-01
C40 -3.909544598501E-01  5.524984061723E-02 -3.904202657205E-01
C41  3.494889138821E-02 -2.339795623325E-01  3.420006221943E-01
C42 -3.494889138821E-02  2.339795623325E-01 -3.420006221943E-01
C43 -6.129524007422E-02 -3.202052675358E-01  4.143432971110E-01
C44  6.129524007422E-02  3.202052675358E-01 -4.143432971110E-01
C45 -1.910157352170E-02 -5.510789544442E-02  3.502891236340E-01
C46  1.910157352170E-02  5.510789544442E-02 -3.502891236340E-01
H47  1.213554946795E-01  2.232347933054E-04  1.413700132915E-01
H48 -1.213554946795E-01 -2.232347933054E-04 -1.413700132915E-01
H49 -1.695688694649E-01  1.300429547734E-01  1.501710889289E-01
H50  1.695688694649E-01 -1.300429547734E-01 -1.501710889289E-01
H51 -3.743017983135E-01  3.078799253168E-01  9.039995730024E-02
H52  3.743017983135E-01 -3.078799253168E-01 -9.039995730024E-02
H53 -2.832906061883E-01  4.488194562119E-01 -3.967709086873E-02
H54  2.832906061883E-01 -4.488194562119E-01  3.967709086873E-02
H55  1.148072941941E-02  4.068307130839E-01 -1.123965289056E-01
H56 -1.148072941941E-02 -4.068307130839E-01  1.123965289056E-01
H57  3.009272184324E-01  2.693510483175E-01 -1.222192351446E-01
H58 -3.009272184324E-01 -2.693510483175E-01  1.222192351446E-01
H59  2.718383373341E-01  4.269009252750E-01  3.680840339674E-01
H60 -2.718383373341E-01 -4.269009252750E-01 -3.680840339674E-01
H61  2.873515919726E-01  4.690257233428E-01  1.850126416489E-01
H62 -2.873515919726E-01 -4.690257233428E-01 -1.850126416489E-01
H63  1.088628973144E-01  4.459282909783E-01  2.612787060095E-01
H64 -1.088628973144E-01 -4.459282909783E-01 -2.612787060095E-01
H65  2.778206680435E-01  2.886596122615E-01  2.382483161650E-01
H66 -2.778206680435E-01 -2.886596122615E-01 -2.382483161650E-01
H67 -4.591638611700E-01  2.859793400556E-01  2.835137183631E-01
H68  4.591638611700E-01 -2.859793400556E-01 -2.835137183631E-01
H69 -4.262135382023E-01  4.445963116714E-01  3.359740753914E-01
H70  4.262135382023E-01 -4.445963116714E-01 -3.359740753914E-01
H71 -4.229257888337E-01  4.621462017837E-01  2.308351318200E-01
H72  4.229257888337E-01 -4.621462017837E-01 -2.308351318200E-01
H73 -4.809379626342E-01 -2.908813000861E-01  3.692083642181E-01
H74  4.809379626342E-01  2.908813000861E-01 -3.692083642181E-01
H75  4.147877284779E-01 -2.642353759165E-01 -4.811097457134E-01
H76 -4.147877284779E-01  2.642353759165E-01  4.811097457134E-01
H77  3.368599016373E-01 -4.186912903026E-01  4.840690916785E-01
H78 -3.368599016373E-01  4.186912903026E-01 -4.840690916785E-01
H79  2.067453420154E-01 -2.351450460481E-01 -4.908897824508E-01
H80 -2.067453420154E-01  2.351450460481E-01  4.908897824508E-01
H81  2.676333055798E-01  1.191286402906E-02  4.165448869305E-01
H82 -2.676333055798E-01 -1.191286402906E-02 -4.165448869305E-01
H83  4.310174246310E-01 -1.331752722457E-02  3.280290731514E-01
H84 -4.310174246310E-01  1.331752722457E-02 -3.280290731514E-01
H85  4.763767967193E-01 -2.689366652550E-02  4.258267248649E-01
H86 -4.763767967193E-01  2.689366652550E-02 -4.258267248649E-01
H87  2.776605099582E-03 -2.680222472175E-01  2.864887110362E-01
H88 -2.776605099582E-03  2.680222472175E-01 -2.864887110362E-01
H89 -3.083289814548E-02 -4.478261156091E-01  4.077376021537E-01
H90  3.083289814548E-02  4.478261156091E-01 -4.077376021537E-01
H91 -1.961619540179E-01 -2.862445013099E-01  4.201026815879E-01
H92  1.961619540179E-01  2.862445013099E-01 -4.201026815879E-01
H93 -3.519672358682E-02 -2.912789837989E-01  4.719915335036E-01
H94  3.519672358682E-02  2.912789837989E-01 -4.719915335036E-01
H95  4.984821433983E-02  8.040713788255E-03  2.998568413605E-01
H96 -4.984821433983E-02 -8.040713788255E-03 -2.998568413605E-01
H97  6.913957319154E-04 -1.351730654976E-02  4.069239578299E-01
H98 -6.913957319154E-04  1.351730654976E-02 -4.069239578299E-01
H99 -1.523318110088E-01 -2.112418656909E-02  3.516608457259E-01
H100  1.523318110088E-01  2.112418656909E-02 -3.516608457259E-01


#===END

data_OPT_STEP_68

_symmetry_space_group_name_H-M 'P 1'
_cell_length_a      8.36315700
_cell_length_b      8.65125606
_cell_length_c     16.86643602
_cell_angle_alpha   87.265398
_cell_angle_beta   76.541183
_cell_angle_gamma   79.754119

loop_
_atom_site_label
_atom_site_fract_x
_atom_site_fract_y
_atom_site_fract_z
SI1  2.732031702061E-01 -3.005779290394E-01  3.186761468910E-01
SI2 -2.732031702061E-01  3.005779290394E-01 -3.186761468910E-01
C3  4.487703075538E-01 -7.589576904387E-02  7.634723185704E-02
C4 -4.487703075538E-01  7.589576904387E-02 -7.634723185704E-02
C5  3.298249506226E-01  3.005213504214E-02  4.385157509040E-02
C6 -3.298249506226E-01 -3.005213504214E-02 -4.385157509040E-02
C7  1.604402381694E-01  6.100995880441E-02  8.444865895831E-02
C8 -1.604402381694E-01 -6.100995880441E-02 -8.444865895831E-02
C9  4.269252862094E-02  1.623808858073E-01  5.288906444309E-02
C10 -4.269252862094E-02 -1.623808858073E-01 -5.288906444309E-02
C11 -1.302885949447E-01  1.908357605272E-01  9.316298505094E-02
C12  1.302885949447E-01 -1.908357605272E-01 -9.316298505094E-02
C13 -2.433211474396E-01  2.895450229710E-01  6.004461413880E-02
C14  2.433211474396E-01 -2.895450229710E-01 -6.004461413880E-02
C15 -1.913321615559E-01  3.687231127213E-01 -1.526451208257E-02
C16  1.913321615559E-01 -3.687231127213E-01  1.526451208257E-02
C17 -2.835502954474E-02  3.451425398148E-01 -5.571754912454E-02
C18  2.835502954474E-02 -3.451425398148E-01  5.571754912454E-02
C19  9.482818935978E-02  2.405660175369E-01 -2.394792400613E-02
C20 -9.482818935978E-02 -2.405660175369E-01  2.394792400613E-02
C21  2.611873504991E-01  2.113274145905E-01 -6.444878114274E-02
C22 -2.611873504991E-01 -2.113274145905E-01  6.444878114274E-02
C23  3.818057848619E-01  1.072211940567E-01 -3.343821750773E-02
C24 -3.818057848619E-01 -1.072211940567E-01  3.343821750773E-02
C25  3.976400313596E-01 -1.501788910331E-01  1.524414072570E-01
C26 -3.976400313596E-01  1.501788910331E-01 -1.524414072570E-01
C27  3.525226279683E-01 -2.125085788710E-01  2.180669549513E-01
C28 -3.525226279683E-01  2.125085788710E-01 -2.180669549513E-01
C29  3.258957312915E-01  4.747255613004E-01  3.082826489232E-01
C30 -3.258957312915E-01 -4.747255613004E-01 -3.082826489232E-01
C31  2.450523500500E-01  4.164853604643E-01  2.448410882346E-01
C32 -2.450523500500E-01 -4.164853604643E-01 -2.448410882346E-01
C33 -4.850271230950E-01  4.142667182951E-01  2.887562298196E-01
C34  4.850271230950E-01 -4.142667182951E-01 -2.887562298196E-01
C35  3.896791588260E-01 -2.328646929896E-01  3.929972910393E-01
C36 -3.896791588260E-01  2.328646929896E-01 -3.929972910393E-01
C37  3.337703475209E-01 -2.916853589085E-01  4.808368587504E-01
C38 -3.337703475209E-01  2.916853589085E-01 -4.808368587504E-01
C39  3.908851383390E-01 -5.525604481843E-02  3.904240200773E-01
C40 -3.908851383390E-01  5.525604481843E-02 -3.904240200773E-01
C41  3.490541498959E-02 -2.340113724575E-01  3.419957121341E-01
C42 -3.490541498959E-02  2.340113724575E-01 -3.419957121341E-01
C43 -6.133633076896E-02 -3.202430366425E-01  4.143352798834E-01
C44  6.133633076896E-02  3.202430366425E-01 -4.143352798834E-01
C45 -1.917299144843E-02 -5.514846490732E-02  3.502898099457E-01
C46  1.917299144843E-02  5.514846490732E-02 -3.502898099457E-01
H47  1.213055923564E-01  1.713876713154E-04  1.413531349795E-01
H48 -1.213055923564E-01 -1.713876713154E-04 -1.413531349795E-01
H49 -1.696460244798E-01  1.300335113450E-01  1.501677555713E-01
H50  1.696460244798E-01 -1.300335113450E-01 -1.501677555713E-01
H51 -3.743871417538E-01  3.079023060118E-01  9.041298194858E-02
H52  3.743871417538E-01 -3.079023060118E-01 -9.041298194858E-02
H53 -2.833618798196E-01  4.488237684085E-01 -3.968507137525E-02
H54  2.833618798196E-01 -4.488237684085E-01  3.968507137525E-02
H55  1.142704521062E-02  4.068402551588E-01 -1.123885340390E-01
H56 -1.142704521062E-02 -4.068402551588E-01  1.123885340390E-01
H57  3.009086052779E-01  2.693917577481E-01 -1.222025763815E-01
H58 -3.009086052779E-01 -2.693917577481E-01  1.222025763815E-01
H59  2.718419344798E-01  4.269072710817E-01  3.680831408292E-01
H60 -2.718419344798E-01 -4.269072710817E-01 -3.680831408292E-01
H61  2.873881217777E-01  4.689953544525E-01  1.850060432227E-01
H62 -2.873881217777E-01 -4.689953544525E-01 -1.850060432227E-01
H63  1.088790420116E-01  4.458909206047E-01  2.612660422047E-01
H64 -1.088790420116E-01 -4.458909206047E-01 -2.612660422047E-01
H65  2.778756807861E-01  2.886448216995E-01  2.382483546432E-01
H66 -2.778756807861E-01 -2.886448216995E-01 -2.382483546432E-01
H67 -4.591050522583E-01  2.860003165801E-01  2.835365685689E-01
H68  4.591050522583E-01 -2.860003165801E-01 -2.835365685689E-01
H69 -4.261922665246E-01  4.446380936894E-01  3.359846588127E-01
H70  4.261922665246E-01 -4.446380936894E-01 -3.359846588127E-01
H71 -4.228825950450E-01  4.621416285012E-01  2.308416955806E-01
H72  4.228825950450E-01 -4.621416285012E-01 -2.308416955806E-01
H73 -4.809220918264E-01 -2.908480825481E-01  3.691941702825E-01
H74  4.809220918264E-01  2.908480825481E-01 -3.691941702825E-01
H75  4.147800634289E-01 -2.642264781602E-01 -4.811189174016E-01
H76 -4.147800634289E-01  2.642264781602E-01  4.811189174016E-01
H77  3.369479140270E-01 -4.187293551047E-01  4.840482500424E-01
H78 -3.369479140270E-01  4.187293551047E-01 -4.840482500424E-01
H79  2.067216676575E-01 -2.352359778398E-01 -4.909010563117E-01
H80 -2.067216676575E-01  2.352359778398E-01  4.909010563117E-01
H81  2.675273398290E-01  1.187131460242E-02  4.165296525047E-01
H82 -2.675273398290E-01 -1.187131460242E-02 -4.165296525047E-01
H83  4.309865951365E-01 -1.331535229828E-02  3.280371469279E-01
H84 -4.309865951365E-01  1.331535229828E-02 -3.280371469279E-01
H85  4.762564370571E-01 -2.688033358175E-02  4.258565685062E-01
H86 -4.762564370571E-01  2.688033358175E-02 -4.258565685062E-01
H87  2.734535056113E-03 -2.680504866650E-01  2.864814854300E-01
H88 -2.734535056113E-03  2.680504866650E-01 -2.864814854300E-01
H89 -3.084581370670E-02 -4.478510031799E-01  4.077293435656E-01
H90  3.084581370670E-02  4.478510031799E-01 -4.077293435656E-01
H91 -1.962161489291E-01 -2.863043128020E-01  4.200934898009E-01
H92  1.962161489291E-01  2.863043128020E-01 -4.200934898009E-01
H93 -3.525414876483E-02 -2.913124742247E-01  4.719852866200E-01
H94  3.525414876483E-02  2.913124742247E-01 -4.719852866200E-01
H95  4.980205670150E-02  8.010317824250E-03  2.998707408042E-01
H96 -4.980205670150E-02 -8.010317824250E-03 -2.998707408042E-01
H97  5.731225824856E-04 -1.356724331715E-02  4.069370025661E-01
H98 -5.731225824856E-04  1.356724331715E-02 -4.069370025661E-01
H99 -1.524081282360E-01 -2.116983487884E-02  3.516405590741E-01
H100  1.524081282360E-01  2.116983487884E-02 -3.516405590741E-01


#===END

data_OPT_STEP_69

_symmetry_space_group_name_H-M 'P 1'
_cell_length_a      8.36315700
_cell_length_b      8.65125606
_cell_length_c     16.86643602
_cell_angle_alpha   87.265398
_cell_angle_beta   76.541183
_cell_angle_gamma   79.754119

loop_
_atom_site_label
_atom_site_fract_x
_atom_site_fract_y
_atom_site_fract_z
SI1  2.732031702061E-01 -3.005779290394E-01  3.186761468910E-01
SI2 -2.732031702061E-01  3.005779290394E-01 -3.186761468910E-01
C3  4.487703075538E-01 -7.589576904387E-02  7.634723185704E-02
C4 -4.487703075538E-01  7.589576904387E-02 -7.634723185704E-02
C5  3.298249506226E-01  3.005213504214E-02  4.385157509040E-02
C6 -3.298249506226E-01 -3.005213504214E-02 -4.385157509040E-02
C7  1.604402381694E-01  6.100995880441E-02  8.444865895831E-02
C8 -1.604402381694E-01 -6.100995880441E-02 -8.444865895831E-02
C9  4.269252862094E-02  1.623808858073E-01  5.288906444309E-02
C10 -4.269252862094E-02 -1.623808858073E-01 -5.288906444309E-02
C11 -1.302885949447E-01  1.908357605272E-01  9.316298505094E-02
C12  1.302885949447E-01 -1.908357605272E-01 -9.316298505094E-02
C13 -2.433211474396E-01  2.895450229710E-01  6.004461413880E-02
C14  2.433211474396E-01 -2.895450229710E-01 -6.004461413880E-02
C15 -1.913321615559E-01  3.687231127213E-01 -1.526451208257E-02
C16  1.913321615559E-01 -3.687231127213E-01  1.526451208257E-02
C17 -2.835502954474E-02  3.451425398148E-01 -5.571754912454E-02
C18  2.835502954474E-02 -3.451425398148E-01  5.571754912454E-02
C19  9.482818935978E-02  2.405660175369E-01 -2.394792400613E-02
C20 -9.482818935978E-02 -2.405660175369E-01  2.394792400613E-02
C21  2.611873504991E-01  2.113274145905E-01 -6.444878114274E-02
C22 -2.611873504991E-01 -2.113274145905E-01  6.444878114274E-02
C23  3.818057848619E-01  1.072211940567E-01 -3.343821750773E-02
C24 -3.818057848619E-01 -1.072211940567E-01  3.343821750773E-02
C25  3.976400313596E-01 -1.501788910331E-01  1.524414072570E-01
C26 -3.976400313596E-01  1.501788910331E-01 -1.524414072570E-01
C27  3.525226279683E-01 -2.125085788710E-01  2.180669549513E-01
C28 -3.525226279683E-01  2.125085788710E-01 -2.180669549513E-01
C29  3.258957312915E-01  4.747255613004E-01  3.082826489232E-01
C30 -3.258957312915E-01 -4.747255613004E-01 -3.082826489232E-01
C31  2.450523500500E-01  4.164853604643E-01  2.448410882346E-01
C32 -2.450523500500E-01 -4.164853604643E-01 -2.448410882346E-01
C33 -4.850271230950E-01  4.142667182951E-01  2.887562298196E-01
C34  4.850271230950E-01 -4.142667182951E-01 -2.887562298196E-01
C35  3.896791588260E-01 -2.328646929896E-01  3.929972910393E-01
C36 -3.896791588260E-01  2.328646929896E-01 -3.929972910393E-01
C37  3.337703475209E-01 -2.916853589085E-01  4.808368587504E-01
C38 -3.337703475209E-01  2.916853589085E-01 -4.808368587504E-01
C39  3.908851383390E-01 -5.525604481843E-02  3.904240200773E-01
C40 -3.908851383390E-01  5.525604481843E-02 -3.904240200773E-01
C41  3.490541498959E-02 -2.340113724575E-01  3.419957121341E-01
C42 -3.490541498959E-02  2.340113724575E-01 -3.419957121341E-01
C43 -6.133633076896E-02 -3.202430366425E-01  4.143352798834E-01
C44  6.133633076896E-02  3.202430366425E-01 -4.143352798834E-01
C45 -1.917299144843E-02 -5.514846490732E-02  3.502898099457E-01
C46  1.917299144843E-02  5.514846490732E-02 -3.502898099457E-01
H47  1.213055923564E-01  1.713876713154E-04  1.413531349795E-01
H48 -1.213055923564E-01 -1.713876713154E-04 -1.413531349795E-01
H49 -1.696460244798E-01  1.300335113450E-01  1.501677555713E-01
H50  1.696460244798E-01 -1.300335113450E-01 -1.501677555713E-01
H51 -3.743871417538E-01  3.079023060118E-01  9.041298194858E-02
H52  3.743871417538E-01 -3.079023060118E-01 -9.041298194858E-02
H53 -2.833618798196E-01  4.488237684085E-01 -3.968507137525E-02
H54  2.833618798196E-01 -4.488237684085E-01  3.968507137525E-02
H55  1.142704521062E-02  4.068402551588E-01 -1.123885340390E-01
H56 -1.142704521062E-02 -4.068402551588E-01  1.123885340390E-01
H57  3.009086052779E-01  2.693917577481E-01 -1.222025763815E-01
H58 -3.009086052779E-01 -2.693917577481E-01  1.222025763815E-01
H59  2.718419344798E-01  4.269072710817E-01  3.680831408292E-01
H60 -2.718419344798E-01 -4.269072710817E-01 -3.680831408292E-01
H61  2.873881217777E-01  4.689953544525E-01  1.850060432227E-01
H62 -2.873881217777E-01 -4.689953544525E-01 -1.850060432227E-01
H63  1.088790420116E-01  4.458909206047E-01  2.612660422047E-01
H64 -1.088790420116E-01 -4.458909206047E-01 -2.612660422047E-01
H65  2.778756807861E-01  2.886448216995E-01  2.382483546432E-01
H66 -2.778756807861E-01 -2.886448216995E-01 -2.382483546432E-01
H67 -4.591050522583E-01  2.860003165801E-01  2.835365685689E-01
H68  4.591050522583E-01 -2.860003165801E-01 -2.835365685689E-01
H69 -4.261922665246E-01  4.446380936894E-01  3.359846588127E-01
H70  4.261922665246E-01 -4.446380936894E-01 -3.359846588127E-01
H71 -4.228825950450E-01  4.621416285012E-01  2.308416955806E-01
H72  4.228825950450E-01 -4.621416285012E-01 -2.308416955806E-01
H73 -4.809220918264E-01 -2.908480825481E-01  3.691941702825E-01
H74  4.809220918264E-01  2.908480825481E-01 -3.691941702825E-01
H75  4.147800634289E-01 -2.642264781602E-01 -4.811189174016E-01
H76 -4.147800634289E-01  2.642264781602E-01  4.811189174016E-01
H77  3.369479140270E-01 -4.187293551047E-01  4.840482500424E-01
H78 -3.369479140270E-01  4.187293551047E-01 -4.840482500424E-01
H79  2.067216676575E-01 -2.352359778398E-01 -4.909010563117E-01
H80 -2.067216676575E-01  2.352359778398E-01  4.909010563117E-01
H81  2.675273398290E-01  1.187131460242E-02  4.165296525047E-01
H82 -2.675273398290E-01 -1.187131460242E-02 -4.165296525047E-01
H83  4.309865951365E-01 -1.331535229828E-02  3.280371469279E-01
H84 -4.309865951365E-01  1.331535229828E-02 -3.280371469279E-01
H85  4.762564370571E-01 -2.688033358175E-02  4.258565685062E-01
H86 -4.762564370571E-01  2.688033358175E-02 -4.258565685062E-01
H87  2.734535056113E-03 -2.680504866650E-01  2.864814854300E-01
H88 -2.734535056113E-03  2.680504866650E-01 -2.864814854300E-01
H89 -3.084581370670E-02 -4.478510031799E-01  4.077293435656E-01
H90  3.084581370670E-02  4.478510031799E-01 -4.077293435656E-01
H91 -1.962161489291E-01 -2.863043128020E-01  4.200934898009E-01
H92  1.962161489291E-01  2.863043128020E-01 -4.200934898009E-01
H93 -3.525414876483E-02 -2.913124742247E-01  4.719852866200E-01
H94  3.525414876483E-02  2.913124742247E-01 -4.719852866200E-01
H95  4.980205670150E-02  8.010317824250E-03  2.998707408042E-01
H96 -4.980205670150E-02 -8.010317824250E-03 -2.998707408042E-01
H97  5.731225824856E-04 -1.356724331715E-02  4.069370025661E-01
H98 -5.731225824856E-04  1.356724331715E-02 -4.069370025661E-01
H99 -1.524081282360E-01 -2.116983487884E-02  3.516405590741E-01
H100  1.524081282360E-01  2.116983487884E-02 -3.516405590741E-01


#===END
