###############################################################################
#
#                    CRYSTAL17 CIF FILE
#
###############################################################################

data_OPT_STEP_1

_symmetry_space_group_name_H-M 'P 1'
_cell_length_a      9.45830000
_cell_length_b      6.01000000
_cell_length_c      8.55760000
_cell_angle_alpha   90.000000
_cell_angle_beta  103.583000
_cell_angle_gamma   90.000000

loop_
_atom_site_label
_atom_site_fract_x
_atom_site_fract_y
_atom_site_fract_z
C1 -3.619500000000E-01 -4.183000000000E-01 -4.209400000000E-01
C2  3.619500000000E-01  8.170000000000E-02 -7.906000000000E-02
C3  3.619500000000E-01  4.183000000000E-01  4.209400000000E-01
C4 -3.619500000000E-01 -8.170000000000E-02  7.906000000000E-02
C5 -2.207000000000E-01 -3.458000000000E-01 -3.383000000000E-01
C6  2.207000000000E-01  1.542000000000E-01 -1.617000000000E-01
C7  2.207000000000E-01  3.458000000000E-01  3.383000000000E-01
C8 -2.207000000000E-01 -1.542000000000E-01  1.617000000000E-01
H9 -1.894000000000E-01 -1.990000000000E-01 -3.688000000000E-01
H10  1.894000000000E-01  3.010000000000E-01 -1.312000000000E-01
H11  1.894000000000E-01  1.990000000000E-01  3.688000000000E-01
H12 -1.894000000000E-01 -3.010000000000E-01  1.312000000000E-01
C13 -1.362000000000E-01 -4.706000000000E-01 -2.228000000000E-01
C14  1.362000000000E-01  2.940000000000E-02 -2.772000000000E-01
C15  1.362000000000E-01  4.706000000000E-01  2.228000000000E-01
C16 -1.362000000000E-01 -2.940000000000E-02  2.772000000000E-01
H17 -3.900000000000E-02 -4.200000000000E-01 -1.660000000000E-01
H18  3.900000000000E-02  8.000000000000E-02 -3.340000000000E-01
H19  3.900000000000E-02  4.200000000000E-01  1.660000000000E-01
H20 -3.900000000000E-02 -8.000000000000E-02  3.340000000000E-01
C21 -1.847000000000E-01  3.205000000000E-01 -1.809000000000E-01
C22  1.847000000000E-01 -1.795000000000E-01 -3.191000000000E-01
C23  1.847000000000E-01 -3.205000000000E-01  1.809000000000E-01
C24 -1.847000000000E-01  1.795000000000E-01  3.191000000000E-01
H25 -1.230000000000E-01  2.260000000000E-01 -9.600000000000E-02
H26  1.230000000000E-01 -2.740000000000E-01 -4.040000000000E-01
H27  1.230000000000E-01 -2.260000000000E-01  9.600000000000E-02
H28 -1.230000000000E-01  2.740000000000E-01  4.040000000000E-01
C29 -3.168000000000E-01  2.430000000000E-01 -2.570700000000E-01
C30  3.168000000000E-01 -2.570000000000E-01 -2.429300000000E-01
C31  3.168000000000E-01 -2.430000000000E-01  2.570700000000E-01
C32 -3.168000000000E-01  2.570000000000E-01  2.429300000000E-01
H33 -3.562000000000E-01  8.800000000000E-02 -2.327000000000E-01
H34  3.562000000000E-01 -4.120000000000E-01 -2.673000000000E-01
H35  3.562000000000E-01 -8.800000000000E-02  2.327000000000E-01
H36 -3.562000000000E-01  4.120000000000E-01  2.673000000000E-01
C37 -4.109500000000E-01  3.686000000000E-01 -3.803300000000E-01
C38  4.109500000000E-01 -1.314000000000E-01 -1.196700000000E-01
C39  4.109500000000E-01 -3.686000000000E-01  3.803300000000E-01
C40 -4.109500000000E-01  1.314000000000E-01  1.196700000000E-01
C41 -4.527900000000E-01 -2.931000000000E-01  4.598900000000E-01
C42  4.527900000000E-01  2.069000000000E-01  4.011000000000E-02
C43  4.527900000000E-01  2.931000000000E-01 -4.598900000000E-01
C44 -4.527900000000E-01 -2.069000000000E-01 -4.011000000000E-02
H45 -4.163000000000E-01 -1.410000000000E-01  4.324000000000E-01
H46  4.163000000000E-01  3.590000000000E-01  6.760000000000E-02
H47  4.163000000000E-01  1.410000000000E-01 -4.324000000000E-01
H48 -4.163000000000E-01 -3.590000000000E-01 -6.760000000000E-02


#===END

data_OPT_STEP_2

_symmetry_space_group_name_H-M 'P 1'
_cell_length_a      9.45830000
_cell_length_b      6.01000000
_cell_length_c      8.55760000
_cell_angle_alpha   90.000000
_cell_angle_beta  103.583000
_cell_angle_gamma   90.000000

loop_
_atom_site_label
_atom_site_fract_x
_atom_site_fract_y
_atom_site_fract_z
C1 -3.619500000000E-01 -4.183000000000E-01 -4.209400000000E-01
C2  3.619500000000E-01  8.170000000000E-02 -7.906000000000E-02
C3  3.619500000000E-01  4.183000000000E-01  4.209400000000E-01
C4 -3.619500000000E-01 -8.170000000000E-02  7.906000000000E-02
C5 -2.207000000000E-01 -3.458000000000E-01 -3.383000000000E-01
C6  2.207000000000E-01  1.542000000000E-01 -1.617000000000E-01
C7  2.207000000000E-01  3.458000000000E-01  3.383000000000E-01
C8 -2.207000000000E-01 -1.542000000000E-01  1.617000000000E-01
H9 -1.894000000000E-01 -1.990000000000E-01 -3.688000000000E-01
H10  1.894000000000E-01  3.010000000000E-01 -1.312000000000E-01
H11  1.894000000000E-01  1.990000000000E-01  3.688000000000E-01
H12 -1.894000000000E-01 -3.010000000000E-01  1.312000000000E-01
C13 -1.362000000000E-01 -4.706000000000E-01 -2.228000000000E-01
C14  1.362000000000E-01  2.940000000000E-02 -2.772000000000E-01
C15  1.362000000000E-01  4.706000000000E-01  2.228000000000E-01
C16 -1.362000000000E-01 -2.940000000000E-02  2.772000000000E-01
H17 -3.900000000000E-02 -4.200000000000E-01 -1.660000000000E-01
H18  3.900000000000E-02  8.000000000000E-02 -3.340000000000E-01
H19  3.900000000000E-02  4.200000000000E-01  1.660000000000E-01
H20 -3.900000000000E-02 -8.000000000000E-02  3.340000000000E-01
C21 -1.847000000000E-01  3.205000000000E-01 -1.809000000000E-01
C22  1.847000000000E-01 -1.795000000000E-01 -3.191000000000E-01
C23  1.847000000000E-01 -3.205000000000E-01  1.809000000000E-01
C24 -1.847000000000E-01  1.795000000000E-01  3.191000000000E-01
H25 -1.230000000000E-01  2.260000000000E-01 -9.600000000000E-02
H26  1.230000000000E-01 -2.740000000000E-01 -4.040000000000E-01
H27  1.230000000000E-01 -2.260000000000E-01  9.600000000000E-02
H28 -1.230000000000E-01  2.740000000000E-01  4.040000000000E-01
C29 -3.168000000000E-01  2.430000000000E-01 -2.570700000000E-01
C30  3.168000000000E-01 -2.570000000000E-01 -2.429300000000E-01
C31  3.168000000000E-01 -2.430000000000E-01  2.570700000000E-01
C32 -3.168000000000E-01  2.570000000000E-01  2.429300000000E-01
H33 -3.562000000000E-01  8.800000000000E-02 -2.327000000000E-01
H34  3.562000000000E-01 -4.120000000000E-01 -2.673000000000E-01
H35  3.562000000000E-01 -8.800000000000E-02  2.327000000000E-01
H36 -3.562000000000E-01  4.120000000000E-01  2.673000000000E-01
C37 -4.109500000000E-01  3.686000000000E-01 -3.803300000000E-01
C38  4.109500000000E-01 -1.314000000000E-01 -1.196700000000E-01
C39  4.109500000000E-01 -3.686000000000E-01  3.803300000000E-01
C40 -4.109500000000E-01  1.314000000000E-01  1.196700000000E-01
C41 -4.527900000000E-01 -2.931000000000E-01  4.598900000000E-01
C42  4.527900000000E-01  2.069000000000E-01  4.011000000000E-02
C43  4.527900000000E-01  2.931000000000E-01 -4.598900000000E-01
C44 -4.527900000000E-01 -2.069000000000E-01 -4.011000000000E-02
H45 -4.163000000000E-01 -1.410000000000E-01  4.324000000000E-01
H46  4.163000000000E-01  3.590000000000E-01  6.760000000000E-02
H47  4.163000000000E-01  1.410000000000E-01 -4.324000000000E-01
H48 -4.163000000000E-01 -3.590000000000E-01 -6.760000000000E-02


#===END

data_OPT_STEP_3

_symmetry_space_group_name_H-M 'P 1'
_cell_length_a      9.47677430
_cell_length_b      6.01066821
_cell_length_c      8.52947167
_cell_angle_alpha   90.000000
_cell_angle_beta  102.901120
_cell_angle_gamma   90.000000

loop_
_atom_site_label
_atom_site_fract_x
_atom_site_fract_y
_atom_site_fract_z
C1 -3.626265530220E-01 -4.169781087870E-01 -4.206733778251E-01
C2  3.626265530220E-01  8.302189121299E-02 -7.932662217485E-02
C3  3.626265530220E-01  4.169781087870E-01  4.206733778251E-01
C4 -3.626265530220E-01 -8.302189121299E-02  7.932662217485E-02
C5 -2.222307327132E-01 -3.422604736563E-01 -3.377126198508E-01
C6  2.222307327132E-01  1.577395263437E-01 -1.622873801492E-01
C7  2.222307327132E-01  3.422604736563E-01  3.377126198508E-01
C8 -2.222307327132E-01 -1.577395263437E-01  1.622873801492E-01
H9 -1.897549280267E-01 -1.910322718938E-01 -3.687916509054E-01
H10  1.897549280267E-01  3.089677281062E-01 -1.312083490946E-01
H11  1.897549280267E-01  1.910322718938E-01  3.687916509054E-01
H12 -1.897549280267E-01 -3.089677281062E-01  1.312083490946E-01
C13 -1.369405262574E-01 -4.692027804499E-01 -2.230117948069E-01
C14  1.369405262574E-01  3.079721955011E-02 -2.769882051931E-01
C15  1.369405262574E-01  4.692027804499E-01  2.230117948069E-01
C16 -1.369405262574E-01 -3.079721955011E-02  2.769882051931E-01
H17 -3.781068406501E-02 -4.157590165825E-01 -1.650000150602E-01
H18  3.781068406501E-02  8.424098341752E-02 -3.349999849398E-01
H19  3.781068406501E-02  4.157590165825E-01  1.650000150602E-01
H20 -3.781068406501E-02 -8.424098341752E-02  3.349999849398E-01
C21 -1.844575816017E-01  3.180791050487E-01 -1.827118060110E-01
C22  1.844575816017E-01 -1.819208949513E-01 -3.172881939890E-01
C23  1.844575816017E-01 -3.180791050487E-01  1.827118060110E-01
C24 -1.844575816017E-01  1.819208949513E-01  3.172881939890E-01
H25 -1.209004579215E-01  2.213499680748E-01 -9.629534536317E-02
H26  1.209004579215E-01 -2.786500319252E-01 -4.037046546368E-01
H27  1.209004579215E-01 -2.213499680748E-01  9.629534536317E-02
H28 -1.209004579215E-01  2.786500319252E-01  4.037046546368E-01
C29 -3.163914428397E-01  2.392904089040E-01 -2.592470233202E-01
C30  3.163914428397E-01 -2.607095910960E-01 -2.407529766798E-01
C31  3.163914428397E-01 -2.392904089040E-01  2.592470233202E-01
C32 -3.163914428397E-01  2.607095910960E-01  2.407529766798E-01
H33 -3.559372353117E-01  8.227584610370E-02 -2.325498292676E-01
H34  3.559372353117E-01 -4.177241538963E-01 -2.674501707324E-01
H35  3.559372353117E-01 -8.227584610370E-02  2.325498292676E-01
H36 -3.559372353117E-01  4.177241538963E-01  2.674501707324E-01
C37 -4.106349558661E-01  3.669394063546E-01 -3.813005879092E-01
C38  4.106349558661E-01 -1.330605936454E-01 -1.186994120908E-01
C39  4.106349558661E-01 -3.669394063546E-01  3.813005879092E-01
C40 -4.106349558661E-01  1.330605936454E-01  1.186994120908E-01
C41 -4.535931466532E-01 -2.897719428173E-01  4.611721755905E-01
C42  4.535931466532E-01  2.102280571827E-01  3.882782440954E-02
C43  4.535931466532E-01  2.897719428173E-01 -4.611721755905E-01
C44 -4.535931466532E-01 -2.102280571827E-01 -3.882782440954E-02
H45 -4.170205185900E-01 -1.340562000184E-01  4.328399163589E-01
H46  4.170205185900E-01  3.659437999816E-01  6.716008364106E-02
H47  4.170205185900E-01  1.340562000184E-01 -4.328399163589E-01
H48 -4.170205185900E-01 -3.659437999816E-01 -6.716008364106E-02


#===END

data_OPT_STEP_4

_symmetry_space_group_name_H-M 'P 1'
_cell_length_a      9.52497277
_cell_length_b      6.16715101
_cell_length_c      8.48431659
_cell_angle_alpha   90.000000
_cell_angle_beta  102.157738
_cell_angle_gamma   90.000000

loop_
_atom_site_label
_atom_site_fract_x
_atom_site_fract_y
_atom_site_fract_z
C1 -3.627020133414E-01 -4.195409979703E-01 -4.224788661025E-01
C2  3.627020133414E-01  8.045900202970E-02 -7.752113389754E-02
C3  3.627020133414E-01  4.195409979703E-01  4.224788661025E-01
C4 -3.627020133414E-01 -8.045900202970E-02  7.752113389754E-02
C5 -2.227133427321E-01 -3.458622039659E-01 -3.416036139946E-01
C6  2.227133427321E-01  1.541377960341E-01 -1.583963860054E-01
C7  2.227133427321E-01  3.458622039659E-01  3.416036139946E-01
C8 -2.227133427321E-01 -1.541377960341E-01  1.583963860054E-01
H9 -1.913566823370E-01 -1.863089883813E-01 -3.670261617652E-01
H10  1.913566823370E-01  3.136910116187E-01 -1.329738382348E-01
H11  1.913566823370E-01  1.863089883813E-01  3.670261617652E-01
H12 -1.913566823370E-01 -3.136910116187E-01  1.329738382348E-01
C13 -1.366598058335E-01 -4.724378115617E-01 -2.279366953630E-01
C14  1.366598058335E-01  2.756218843827E-02 -2.720633046370E-01
C15  1.366598058335E-01  4.724378115617E-01  2.279366953630E-01
C16 -1.366598058335E-01 -2.756218843827E-02  2.720633046370E-01
H17 -3.463075213256E-02 -4.161620167927E-01 -1.675373422453E-01
H18  3.463075213256E-02  8.383798320731E-02 -3.324626577547E-01
H19  3.463075213256E-02  4.161620167927E-01  1.675373422453E-01
H20 -3.463075213256E-02 -8.383798320731E-02  3.324626577547E-01
C21 -1.864052289142E-01  3.223243642615E-01 -1.828446933599E-01
C22  1.864052289142E-01 -1.776756357385E-01 -3.171553066401E-01
C23  1.864052289142E-01 -3.223243642615E-01  1.828446933599E-01
C24 -1.864052289142E-01  1.776756357385E-01  3.171553066401E-01
H25 -1.187837903103E-01  2.249979633378E-01 -9.435579312856E-02
H26  1.187837903103E-01 -2.750020366622E-01 -4.056442068714E-01
H27  1.187837903103E-01 -2.249979633378E-01  9.435579312856E-02
H28 -1.187837903103E-01  2.750020366622E-01  4.056442068714E-01
C29 -3.178784525479E-01  2.441230036216E-01 -2.594765162954E-01
C30  3.178784525479E-01 -2.558769963784E-01 -2.405234837046E-01
C31  3.178784525479E-01 -2.441230036216E-01  2.594765162954E-01
C32 -3.178784525479E-01  2.558769963784E-01  2.405234837046E-01
H33 -3.520860494901E-01  8.023908836783E-02 -2.372679639216E-01
H34  3.520860494901E-01 -4.197609116322E-01 -2.627320360784E-01
H35  3.520860494901E-01 -8.023908836783E-02  2.372679639216E-01
H36 -3.520860494901E-01  4.197609116322E-01  2.627320360784E-01
C37 -4.112638741203E-01  3.701390516038E-01 -3.808110107131E-01
C38  4.112638741203E-01 -1.298609483962E-01 -1.191889892869E-01
C39  4.112638741203E-01 -3.701390516038E-01  3.808110107131E-01
C40 -4.112638741203E-01  1.298609483962E-01  1.191889892869E-01
C41 -4.536217899147E-01 -2.931397740657E-01  4.606976234978E-01
C42  4.536217899147E-01  2.068602259343E-01  3.930237650225E-02
C43  4.536217899147E-01  2.931397740657E-01 -4.606976234978E-01
C44 -4.536217899147E-01 -2.068602259343E-01 -3.930237650225E-02
H45 -4.210090651341E-01 -1.295256471749E-01  4.379089262668E-01
H46  4.210090651341E-01  3.704743528251E-01  6.209107373317E-02
H47  4.210090651341E-01  1.295256471749E-01 -4.379089262668E-01
H48 -4.210090651341E-01 -3.704743528251E-01 -6.209107373317E-02


#===END

data_OPT_STEP_5

_symmetry_space_group_name_H-M 'P 1'
_cell_length_a      9.39859919
_cell_length_b      6.18150469
_cell_length_c      8.26155005
_cell_angle_alpha   90.000000
_cell_angle_beta   99.632535
_cell_angle_gamma   90.000000

loop_
_atom_site_label
_atom_site_fract_x
_atom_site_fract_y
_atom_site_fract_z
C1 -3.663953363348E-01 -4.114185301985E-01 -4.177644537535E-01
C2  3.663953363348E-01  8.858146980152E-02 -8.223554624654E-02
C3  3.663953363348E-01  4.114185301985E-01  4.177644537535E-01
C4 -3.663953363348E-01 -8.858146980152E-02  8.223554624654E-02
C5 -2.287288474124E-01 -3.311204760030E-01 -3.355602471242E-01
C6  2.287288474124E-01  1.688795239970E-01 -1.644397528758E-01
C7  2.287288474124E-01  3.311204760030E-01  3.355602471242E-01
C8 -2.287288474124E-01 -1.688795239970E-01  1.644397528758E-01
H9 -1.964223113988E-01 -1.648724721187E-01 -3.611341323131E-01
H10  1.964223113988E-01  3.351275278813E-01 -1.388658676869E-01
H11  1.964223113988E-01  1.648724721187E-01  3.611341323131E-01
H12 -1.964223113988E-01 -3.351275278813E-01  1.388658676869E-01
C13 -1.410491029114E-01 -4.599205910989E-01 -2.237375961959E-01
C14  1.410491029114E-01  4.007940890108E-02 -2.762624038041E-01
C15  1.410491029114E-01  4.599205910989E-01  2.237375961959E-01
C16 -1.410491029114E-01 -4.007940890108E-02  2.762624038041E-01
H17 -3.708098340106E-02 -3.979368551477E-01 -1.609679288898E-01
H18  3.708098340106E-02  1.020631448523E-01 -3.390320711102E-01
H19  3.708098340106E-02  3.979368551477E-01  1.609679288898E-01
H20 -3.708098340106E-02 -1.020631448523E-01  3.390320711102E-01
C21 -1.801979244891E-01  3.154054518814E-01 -1.962843647151E-01
C22  1.801979244891E-01 -1.845945481186E-01 -3.037156352849E-01
C23  1.801979244891E-01 -3.154054518814E-01  1.962843647151E-01
C24 -1.801979244891E-01  1.845945481186E-01  3.037156352849E-01
H25 -1.068071157119E-01  2.134493824708E-01 -1.096678354026E-01
H26  1.068071157119E-01 -2.865506175292E-01 -3.903321645974E-01
H27  1.068071157119E-01 -2.134493824708E-01  1.096678354026E-01
H28 -1.068071157119E-01  2.865506175292E-01  3.903321645974E-01
C29 -3.127831600736E-01  2.365327387356E-01 -2.693759424233E-01
C30  3.127831600736E-01 -2.634672612644E-01 -2.306240575767E-01
C31  3.127831600736E-01 -2.365327387356E-01  2.693759424233E-01
C32 -3.127831600736E-01  2.634672612644E-01  2.306240575767E-01
H33 -3.519485981853E-01  7.875208872399E-02 -2.319561775212E-01
H34  3.519485981853E-01 -4.212479112760E-01 -2.680438224788E-01
H35  3.519485981853E-01 -7.875208872399E-02  2.319561775212E-01
H36 -3.519485981853E-01  4.212479112760E-01  2.680438224788E-01
C37 -4.065314264879E-01  3.636064385301E-01 -3.890757530826E-01
C38  4.065314264879E-01 -1.363935614699E-01 -1.109242469174E-01
C39  4.065314264879E-01 -3.636064385301E-01  3.890757530826E-01
C40 -4.065314264879E-01  1.363935614699E-01  1.109242469174E-01
C41 -4.576575374644E-01 -2.850949560349E-01  4.657961832769E-01
C42  4.576575374644E-01  2.149050439651E-01  3.420381672307E-02
C43  4.576575374644E-01  2.850949560349E-01 -4.657961832769E-01
C44 -4.576575374644E-01 -2.149050439651E-01 -3.420381672307E-02
H45 -4.212408790592E-01 -1.240874698955E-01  4.323225706659E-01
H46  4.212408790592E-01  3.759125301045E-01  6.767742933411E-02
H47  4.212408790592E-01  1.240874698955E-01 -4.323225706659E-01
H48 -4.212408790592E-01 -3.759125301045E-01 -6.767742933411E-02


#===END

data_OPT_STEP_6

_symmetry_space_group_name_H-M 'P 1'
_cell_length_a      9.56141273
_cell_length_b      6.26875181
_cell_length_c      8.37869305
_cell_angle_alpha   90.000000
_cell_angle_beta  101.496871
_cell_angle_gamma   90.000000

loop_
_atom_site_label
_atom_site_fract_x
_atom_site_fract_y
_atom_site_fract_z
C1 -3.619905563739E-01 -4.236222692884E-01 -4.246920902608E-01
C2  3.619905563739E-01  7.637773071165E-02 -7.530790973918E-02
C3  3.619905563739E-01  4.236222692884E-01  4.246920902608E-01
C4 -3.619905563739E-01 -7.637773071165E-02  7.530790973918E-02
C5 -2.234440971690E-01 -3.500411419926E-01 -3.426710876745E-01
C6  2.234440971690E-01  1.499588580074E-01 -1.573289123255E-01
C7  2.234440971690E-01  3.500411419926E-01  3.426710876745E-01
C8 -2.234440971690E-01 -1.499588580074E-01  1.573289123255E-01
H9 -1.916880949650E-01 -1.879852589938E-01 -3.676507824745E-01
H10  1.916880949650E-01  3.120147410062E-01 -1.323492175255E-01
H11  1.916880949650E-01  1.879852589938E-01  3.676507824745E-01
H12 -1.916880949650E-01 -3.120147410062E-01  1.323492175255E-01
C13 -1.377567496152E-01 -4.754415324955E-01 -2.282023186094E-01
C14  1.377567496152E-01  2.455846750447E-02 -2.717976813906E-01
C15  1.377567496152E-01  4.754415324955E-01  2.282023186094E-01
C16 -1.377567496152E-01 -2.455846750447E-02  2.717976813906E-01
H17 -3.377755752932E-02 -4.176122209774E-01 -1.666164583645E-01
H18  3.377755752932E-02  8.238777902260E-02 -3.333835416355E-01
H19  3.377755752932E-02  4.176122209774E-01  1.666164583645E-01
H20 -3.377755752932E-02 -8.238777902260E-02  3.333835416355E-01
C21 -1.856988496891E-01  3.192361022609E-01 -1.865060949816E-01
C22  1.856988496891E-01 -1.807638977391E-01 -3.134939050184E-01
C23  1.856988496891E-01 -3.192361022609E-01  1.865060949816E-01
C24 -1.856988496891E-01  1.807638977391E-01  3.134939050184E-01
H25 -1.170118850454E-01  2.230398879654E-01 -9.436976502065E-02
H26  1.170118850454E-01 -2.769601120346E-01 -4.056302349794E-01
H27  1.170118850454E-01 -2.230398879654E-01  9.436976502065E-02
H28 -1.170118850454E-01  2.769601120346E-01  4.056302349794E-01
C29 -3.178007087656E-01  2.437971663798E-01 -2.617331037315E-01
C30  3.178007087656E-01 -2.562028336202E-01 -2.382668962685E-01
C31  3.178007087656E-01 -2.437971663798E-01  2.617331037315E-01
C32 -3.178007087656E-01  2.562028336202E-01  2.382668962685E-01
H33 -3.560462832070E-01  8.744967845285E-02 -2.291299378092E-01
H34  3.560462832070E-01 -4.125503215472E-01 -2.708700621908E-01
H35  3.560462832070E-01 -8.744967845285E-02  2.291299378092E-01
H36 -3.560462832070E-01  4.125503215472E-01  2.708700621908E-01
C37 -4.116600632311E-01  3.712340342930E-01 -3.806851291597E-01
C38  4.116600632311E-01 -1.287659657070E-01 -1.193148708403E-01
C39  4.116600632311E-01 -3.712340342930E-01  3.806851291597E-01
C40 -4.116600632311E-01  1.287659657070E-01  1.193148708403E-01
C41 -4.518743418244E-01 -2.985922950124E-01  4.575001119548E-01
C42  4.518743418244E-01  2.014077049876E-01  4.249988804516E-02
C43  4.518743418244E-01  2.985922950124E-01 -4.575001119548E-01
C44 -4.518743418244E-01 -2.014077049876E-01 -4.249988804516E-02
H45 -4.141140089960E-01 -1.429117446721E-01  4.240872471577E-01
H46  4.141140089960E-01  3.570882553279E-01  7.591275284228E-02
H47  4.141140089960E-01  1.429117446721E-01 -4.240872471577E-01
H48 -4.141140089960E-01 -3.570882553279E-01 -7.591275284228E-02


#===END

data_OPT_STEP_7

_symmetry_space_group_name_H-M 'P 1'
_cell_length_a      9.53185054
_cell_length_b      6.25730224
_cell_length_c      8.35657949
_cell_angle_alpha   90.000000
_cell_angle_beta  101.173005
_cell_angle_gamma   90.000000

loop_
_atom_site_label
_atom_site_fract_x
_atom_site_fract_y
_atom_site_fract_z
C1 -3.626535590772E-01 -4.220139739289E-01 -4.234911418916E-01
C2  3.626535590772E-01  7.798602607109E-02 -7.650885810843E-02
C3  3.626535590772E-01  4.220139739289E-01  4.234911418916E-01
C4 -3.626535590772E-01 -7.798602607109E-02  7.650885810843E-02
C5 -2.241448253095E-01 -3.478645046790E-01 -3.414455884316E-01
C6  2.241448253095E-01  1.521354953210E-01 -1.585544115684E-01
C7  2.241448253095E-01  3.478645046790E-01  3.414455884316E-01
C8 -2.241448253095E-01 -1.521354953210E-01  1.585544115684E-01
H9 -1.922225174368E-01 -1.853030241958E-01 -3.665446303978E-01
H10  1.922225174368E-01  3.146969758042E-01 -1.334553696022E-01
H11  1.922225174368E-01  1.853030241958E-01  3.665446303978E-01
H12 -1.922225174368E-01 -3.146969758042E-01  1.334553696022E-01
C13 -1.379499134222E-01 -4.742069250777E-01 -2.279111937999E-01
C14  1.379499134222E-01  2.579307492229E-02 -2.720888062001E-01
C15  1.379499134222E-01  4.742069250777E-01  2.279111937999E-01
C16 -1.379499134222E-01 -2.579307492229E-02  2.720888062001E-01
H17 -3.382911497222E-02 -4.158170731171E-01 -1.662656389300E-01
H18  3.382911497222E-02  8.418292688288E-02 -3.337343610700E-01
H19  3.382911497222E-02  4.158170731171E-01  1.662656389300E-01
H20 -3.382911497222E-02 -8.418292688288E-02  3.337343610700E-01
C21 -1.854261888545E-01  3.190397640234E-01 -1.871079131036E-01
C22  1.854261888545E-01 -1.809602359766E-01 -3.128920868964E-01
C23  1.854261888545E-01 -3.190397640234E-01  1.871079131036E-01
C24 -1.854261888545E-01  1.809602359766E-01  3.128920868964E-01
H25 -1.163428884178E-01  2.221530873572E-01 -9.541239071847E-02
H26  1.163428884178E-01 -2.778469126428E-01 -4.045876092815E-01
H27  1.163428884178E-01 -2.221530873572E-01  9.541239071847E-02
H28 -1.163428884178E-01  2.778469126428E-01  4.045876092815E-01
C29 -3.167287200154E-01  2.417433793194E-01 -2.638302228709E-01
C30  3.167287200154E-01 -2.582566206806E-01 -2.361697771291E-01
C31  3.167287200154E-01 -2.417433793194E-01  2.638302228709E-01
C32 -3.167287200154E-01  2.582566206806E-01  2.361697771291E-01
H33 -3.531937844709E-01  8.205203189344E-02 -2.343998469456E-01
H34  3.531937844709E-01 -4.179479681066E-01 -2.656001530544E-01
H35  3.531937844709E-01 -8.205203189344E-02  2.343998469456E-01
H36 -3.531937844709E-01  4.179479681066E-01  2.656001530544E-01
C37 -4.110777396466E-01  3.701587358966E-01 -3.817880251923E-01
C38  4.110777396466E-01 -1.298412641034E-01 -1.182119748077E-01
C39  4.110777396466E-01 -3.701587358966E-01  3.817880251923E-01
C40 -4.110777396466E-01  1.298412641034E-01  1.182119748077E-01
C41 -4.536175466712E-01 -2.950403670929E-01  4.607746867728E-01
C42  4.536175466712E-01  2.049596329071E-01  3.922531322724E-02
C43  4.536175466712E-01  2.950403670929E-01 -4.607746867728E-01
C44 -4.536175466712E-01 -2.049596329071E-01 -3.922531322724E-02
H45 -4.176186358219E-01 -1.358135321623E-01  4.306355435519E-01
H46  4.176186358219E-01  3.641864678377E-01  6.936445644810E-02
H47  4.176186358219E-01  1.358135321623E-01 -4.306355435519E-01
H48 -4.176186358219E-01 -3.641864678377E-01 -6.936445644810E-02


#===END

data_OPT_STEP_8

_symmetry_space_group_name_H-M 'P 1'
_cell_length_a      9.41964908
_cell_length_b      6.25075087
_cell_length_c      8.24477996
_cell_angle_alpha   90.000000
_cell_angle_beta   99.470728
_cell_angle_gamma   90.000000

loop_
_atom_site_label
_atom_site_fract_x
_atom_site_fract_y
_atom_site_fract_z
C1 -3.644729142236E-01 -4.176190714625E-01 -4.207107810235E-01
C2  3.644729142236E-01  8.238092853755E-02 -7.928921897654E-02
C3  3.644729142236E-01  4.176190714625E-01  4.207107810235E-01
C4 -3.644729142236E-01 -8.238092853754E-02  7.928921897654E-02
C5 -2.269167729532E-01 -3.407059226521E-01 -3.377542639648E-01
C6  2.269167729532E-01  1.592940773479E-01 -1.622457360352E-01
C7  2.269167729532E-01  3.407059226521E-01  3.377542639648E-01
C8 -2.269167729532E-01 -1.592940773479E-01  1.622457360352E-01
H9 -1.932125071165E-01 -1.755015127786E-01 -3.646303472513E-01
H10  1.932125071165E-01  3.244984872214E-01 -1.353696527487E-01
H11  1.932125071165E-01  1.755015127786E-01  3.646303472513E-01
H12 -1.932125071165E-01 -3.244984872214E-01  1.353696527487E-01
C13 -1.398723252114E-01 -4.688662832557E-01 -2.261691116266E-01
C14  1.398723252114E-01  3.113371674428E-02 -2.738308883734E-01
C15  1.398723252114E-01  4.688662832557E-01  2.261691116266E-01
C16 -1.398723252114E-01 -3.113371674428E-02  2.738308883734E-01
H17 -3.371780583261E-02 -4.073616347811E-01 -1.636518771378E-01
H18  3.371780583261E-02  9.263836521895E-02 -3.363481228622E-01
H19  3.371780583261E-02  4.073616347811E-01  1.636518771378E-01
H20 -3.371780583261E-02 -9.263836521895E-02  3.363481228622E-01
C21 -1.860519946103E-01  3.199270184465E-01 -1.885053673121E-01
C22  1.860519946103E-01 -1.800729815535E-01 -3.114946326879E-01
C23  1.860519946103E-01 -3.199270184465E-01  1.885053673121E-01
C24 -1.860519946103E-01  1.800729815535E-01  3.114946326879E-01
H25 -1.133430294152E-01  2.183867009689E-01 -9.907502187690E-02
H26  1.133430294152E-01 -2.816132990311E-01 -4.009249781231E-01
H27  1.133430294152E-01 -2.183867009689E-01  9.907502187690E-02
H28 -1.133430294152E-01  2.816132990311E-01  4.009249781231E-01
C29 -3.190644487870E-01  2.438471153691E-01 -2.619135362607E-01
C30  3.190644487870E-01 -2.561528846309E-01 -2.380864637393E-01
C31  3.190644487870E-01 -2.438471153691E-01  2.619135362607E-01
C32 -3.190644487870E-01  2.561528846309E-01  2.380864637393E-01
H33 -3.537741800969E-01  7.878346131961E-02 -2.341821618372E-01
H34  3.537741800969E-01 -4.212165386804E-01 -2.658178381628E-01
H35  3.537741800969E-01 -7.878346131961E-02  2.341821618372E-01
H36 -3.537741800969E-01  4.212165386804E-01  2.658178381628E-01
C37 -4.105773338599E-01  3.686404440733E-01 -3.835146572503E-01
C38  4.105773338599E-01 -1.313595559267E-01 -1.164853427497E-01
C39  4.105773338599E-01 -3.686404440733E-01  3.835146572503E-01
C40 -4.105773338599E-01  1.313595559267E-01  1.164853427497E-01
C41 -4.538919009923E-01 -2.922898060971E-01  4.617736591209E-01
C42  4.538919009923E-01  2.077101939029E-01  3.822634087911E-02
C43  4.538919009923E-01  2.922898060971E-01 -4.617736591209E-01
C44 -4.538919009923E-01 -2.077101939029E-01 -3.822634087911E-02
H45 -4.187349969254E-01 -1.274963638998E-01  4.330197711754E-01
H46  4.187349969254E-01  3.725036361002E-01  6.698022882463E-02
H47  4.187349969254E-01  1.274963638998E-01 -4.330197711754E-01
H48 -4.187349969254E-01 -3.725036361002E-01 -6.698022882463E-02


#===END

data_OPT_STEP_9

_symmetry_space_group_name_H-M 'P 1'
_cell_length_a      9.51424834
_cell_length_b      6.17368952
_cell_length_c      8.35063955
_cell_angle_alpha   90.000000
_cell_angle_beta  100.617909
_cell_angle_gamma   90.000000

loop_
_atom_site_label
_atom_site_fract_x
_atom_site_fract_y
_atom_site_fract_z
C1 -3.644689623129E-01 -4.173152134725E-01 -4.205235489354E-01
C2  3.644689623129E-01  8.268478652748E-02 -7.947645106459E-02
C3  3.644689623129E-01  4.173152134725E-01  4.205235489354E-01
C4 -3.644689623129E-01 -8.268478652748E-02  7.947645106459E-02
C5 -2.255348253563E-01 -3.428981182222E-01 -3.402830000480E-01
C6  2.255348253563E-01  1.571018817778E-01 -1.597169999520E-01
C7  2.255348253563E-01  3.428981182222E-01  3.402830000480E-01
C8 -2.255348253563E-01 -1.571018817778E-01  1.597169999520E-01
H9 -1.909838998788E-01 -1.771829929062E-01 -3.689985986409E-01
H10  1.909838998788E-01  3.228170070938E-01 -1.310014013591E-01
H11  1.909838998788E-01  1.771829929062E-01  3.689985986409E-01
H12 -1.909838998788E-01 -3.228170070938E-01  1.310014013591E-01
C13 -1.396755570719E-01 -4.701908028578E-01 -2.261227476264E-01
C14  1.396755570719E-01  2.980919714217E-02 -2.738772523736E-01
C15  1.396755570719E-01  4.701908028578E-01  2.261227476264E-01
C16 -1.396755570719E-01 -2.980919714217E-02  2.738772523736E-01
H17 -3.370442077813E-02 -4.072927573648E-01 -1.620465401053E-01
H18  3.370442077813E-02  9.270724263523E-02 -3.379534598947E-01
H19  3.370442077813E-02  4.072927573648E-01  1.620465401053E-01
H20 -3.370442077813E-02 -9.270724263523E-02  3.379534598947E-01
C21 -1.843145093641E-01  3.141609976650E-01 -1.914467626384E-01
C22  1.843145093641E-01 -1.858390023350E-01 -3.085532373616E-01
C23  1.843145093641E-01 -3.141609976650E-01  1.914467626384E-01
C24 -1.843145093641E-01  1.858390023350E-01  3.085532373616E-01
H25 -1.128447833373E-01  2.125719735562E-01 -9.960234318291E-02
H26  1.128447833373E-01 -2.874280264438E-01 -4.003976568171E-01
H27  1.128447833373E-01 -2.125719735562E-01  9.960234318291E-02
H28 -1.128447833373E-01  2.874280264438E-01  4.003976568171E-01
C29 -3.141083397007E-01  2.327000742591E-01 -2.710687084532E-01
C30  3.141083397007E-01 -2.672999257409E-01 -2.289312915468E-01
C31  3.141083397007E-01 -2.327000742591E-01  2.710687084532E-01
C32 -3.141083397007E-01  2.672999257409E-01  2.289312915468E-01
H33 -3.502327651201E-01  6.846073540701E-02 -2.409396784823E-01
H34  3.502327651201E-01 -4.315392645930E-01 -2.590603215177E-01
H35  3.502327651201E-01 -6.846073540701E-02  2.409396784823E-01
H36 -3.502327651201E-01  4.315392645930E-01  2.590603215177E-01
C37 -4.095553150464E-01  3.654608508886E-01 -3.853716659337E-01
C38  4.095553150464E-01 -1.345391491114E-01 -1.146283340663E-01
C39  4.095553150464E-01 -3.654608508886E-01  3.853716659337E-01
C40 -4.095553150464E-01  1.345391491114E-01  1.146283340663E-01
C41 -4.549689979929E-01 -2.888687681957E-01  4.638590445803E-01
C42  4.549689979929E-01  2.111312318043E-01  3.614095541971E-02
C43  4.549689979929E-01  2.888687681957E-01 -4.638590445803E-01
C44 -4.549689979929E-01 -2.111312318043E-01 -3.614095541971E-02
H45 -4.183092110934E-01 -1.249557761766E-01  4.323424294882E-01
H46  4.183092110934E-01  3.750442238234E-01  6.765757051178E-02
H47  4.183092110934E-01  1.249557761766E-01 -4.323424294882E-01
H48 -4.183092110934E-01 -3.750442238234E-01 -6.765757051178E-02


#===END

data_OPT_STEP_10

_symmetry_space_group_name_H-M 'P 1'
_cell_length_a      9.42785207
_cell_length_b      6.24260532
_cell_length_c      8.26292657
_cell_angle_alpha   90.000000
_cell_angle_beta   99.618488
_cell_angle_gamma   90.000000

loop_
_atom_site_label
_atom_site_fract_x
_atom_site_fract_y
_atom_site_fract_z
C1 -3.646593094133E-01 -4.172480740637E-01 -4.201279534539E-01
C2  3.646593094133E-01  8.275192593628E-02 -7.987204654607E-02
C3  3.646593094133E-01  4.172480740637E-01  4.201279534539E-01
C4 -3.646593094133E-01 -8.275192593628E-02  7.987204654607E-02
C5 -2.263710440166E-01 -3.416880357603E-01 -3.384680224688E-01
C6  2.263710440166E-01  1.583119642397E-01 -1.615319775312E-01
C7  2.263710440166E-01  3.416880357603E-01  3.384680224688E-01
C8 -2.263710440166E-01 -1.583119642397E-01  1.615319775312E-01
H9 -1.923062343625E-01 -1.765926365600E-01 -3.660713945134E-01
H10  1.923062343625E-01  3.234073634400E-01 -1.339286054866E-01
H11  1.923062343625E-01  1.765926365600E-01  3.660713945134E-01
H12 -1.923062343625E-01 -3.234073634400E-01  1.339286054866E-01
C13 -1.398554533378E-01 -4.691990721028E-01 -2.259245812630E-01
C14  1.398554533378E-01  3.080092789718E-02 -2.740754187370E-01
C15  1.398554533378E-01  4.691990721028E-01  2.259245812630E-01
C16 -1.398554533378E-01 -3.080092789718E-02  2.740754187370E-01
H17 -3.352568558743E-02 -4.076188656435E-01 -1.631230388173E-01
H18  3.352568558743E-02  9.238113435655E-02 -3.368769611827E-01
H19  3.352568558743E-02  4.076188656435E-01  1.631230388173E-01
H20 -3.352568558743E-02 -9.238113435655E-02  3.368769611827E-01
C21 -1.856605578026E-01  3.184509757436E-01 -1.893523307846E-01
C22  1.856605578026E-01 -1.815490242564E-01 -3.106476692154E-01
C23  1.856605578026E-01 -3.184509757436E-01  1.893523307846E-01
C24 -1.856605578026E-01  1.815490242564E-01  3.106476692154E-01
H25 -1.136689292557E-01  2.172223096770E-01 -9.881502101655E-02
H26  1.136689292557E-01 -2.827776903230E-01 -4.011849789834E-01
H27  1.136689292557E-01 -2.172223096770E-01  9.881502101655E-02
H28 -1.136689292557E-01  2.827776903230E-01  4.011849789834E-01
C29 -3.172386472675E-01  2.400674094828E-01 -2.656449887826E-01
C30  3.172386472675E-01 -2.599325905172E-01 -2.343550112174E-01
C31  3.172386472675E-01 -2.400674094828E-01  2.656449887826E-01
C32 -3.172386472675E-01  2.599325905172E-01  2.343550112174E-01
H33 -3.530286777200E-01  7.640316427318E-02 -2.362880919144E-01
H34  3.530286777200E-01 -4.235968357268E-01 -2.637119080856E-01
H35  3.530286777200E-01 -7.640316427318E-02  2.362880919144E-01
H36 -3.530286777200E-01  4.235968357268E-01  2.637119080856E-01
C37 -4.104910878389E-01  3.681293935522E-01 -3.838324930253E-01
C38  4.104910878389E-01 -1.318706064478E-01 -1.161675069747E-01
C39  4.104910878389E-01 -3.681293935522E-01  3.838324930253E-01
C40 -4.104910878389E-01  1.318706064478E-01  1.161675069747E-01
C41 -4.544550512211E-01 -2.909904212343E-01  4.631691826267E-01
C42  4.544550512211E-01  2.090095787657E-01  3.683081737334E-02
C43  4.544550512211E-01  2.909904212343E-01 -4.631691826267E-01
C44 -4.544550512211E-01 -2.090095787657E-01 -3.683081737334E-02
H45 -4.185894770051E-01 -1.269730106529E-01  4.333367519965E-01
H46  4.185894770051E-01  3.730269893471E-01  6.666324800348E-02
H47  4.185894770051E-01  1.269730106529E-01 -4.333367519965E-01
H48 -4.185894770051E-01 -3.730269893471E-01 -6.666324800348E-02


#===END

data_OPT_STEP_11

_symmetry_space_group_name_H-M 'P 1'
_cell_length_a      9.42905476
_cell_length_b      6.22909988
_cell_length_c      8.29291679
_cell_angle_alpha   90.000000
_cell_angle_beta   99.864284
_cell_angle_gamma   90.000000

loop_
_atom_site_label
_atom_site_fract_x
_atom_site_fract_y
_atom_site_fract_z
C1 -3.635042213048E-01 -4.190935596679E-01 -4.218306862094E-01
C2  3.635042213048E-01  8.090644033213E-02 -7.816931379060E-02
C3  3.635042213048E-01  4.190935596679E-01  4.218306862094E-01
C4 -3.635042213048E-01 -8.090644033213E-02  7.816931379060E-02
C5 -2.254286598116E-01 -3.430335898752E-01 -3.391390807323E-01
C6  2.254286598116E-01  1.569664101248E-01 -1.608609192677E-01
C7  2.254286598116E-01  3.430335898752E-01  3.391390807323E-01
C8 -2.254286598116E-01 -1.569664101248E-01  1.608609192677E-01
H9 -1.909354274457E-01 -1.787192331538E-01 -3.676172256708E-01
H10  1.909354274457E-01  3.212807668462E-01 -1.323827743292E-01
H11  1.909354274457E-01  1.787192331538E-01  3.676172256708E-01
H12 -1.909354274457E-01 -3.212807668462E-01  1.323827743292E-01
C13 -1.394021174393E-01 -4.702340167098E-01 -2.258565202583E-01
C14  1.394021174393E-01  2.976598329019E-02 -2.741434797417E-01
C15  1.394021174393E-01  4.702340167098E-01  2.258565202583E-01
C16 -1.394021174393E-01 -2.976598329019E-02  2.741434797417E-01
H17 -3.308137044184E-02 -4.091893638626E-01 -1.631998043583E-01
H18  3.308137044184E-02  9.081063613740E-02 -3.368001956417E-01
H19  3.308137044184E-02  4.091893638626E-01  1.631998043583E-01
H20 -3.308137044184E-02 -9.081063613740E-02  3.368001956417E-01
C21 -1.858056796008E-01  3.177124412890E-01 -1.888114780725E-01
C22  1.858056796008E-01 -1.822875587110E-01 -3.111885219275E-01
C23  1.858056796008E-01 -3.177124412890E-01  1.888114780725E-01
C24 -1.858056796008E-01  1.822875587110E-01  3.111885219275E-01
H25 -1.151867578359E-01  2.170942136533E-01 -9.712744746996E-02
H26  1.151867578359E-01 -2.829057863467E-01 -4.028725525300E-01
H27  1.151867578359E-01 -2.170942136533E-01  9.712744746996E-02
H28 -1.151867578359E-01  2.829057863467E-01  4.028725525300E-01
C29 -3.172596279869E-01  2.393599180818E-01 -2.657404548589E-01
C30  3.172596279869E-01 -2.606400819182E-01 -2.342595451411E-01
C31  3.172596279869E-01 -2.393599180818E-01  2.657404548589E-01
C32 -3.172596279869E-01  2.606400819182E-01  2.342595451411E-01
H33 -3.542465312736E-01  7.728168937950E-02 -2.352362794655E-01
H34  3.542465312736E-01 -4.227183106205E-01 -2.647637205345E-01
H35  3.542465312736E-01 -7.728168937950E-02  2.352362794655E-01
H36 -3.542465312736E-01  4.227183106205E-01  2.647637205345E-01
C37 -4.100670640002E-01  3.669048862673E-01 -3.847801009930E-01
C38  4.100670640002E-01 -1.330951137327E-01 -1.152198990070E-01
C39  4.100670640002E-01 -3.669048862673E-01  3.847801009930E-01
C40 -4.100670640002E-01  1.330951137327E-01  1.152198990070E-01
C41 -4.547156376609E-01 -2.901413372913E-01  4.641721332414E-01
C42  4.547156376609E-01  2.098586627087E-01  3.582786675858E-02
C43  4.547156376609E-01  2.901413372913E-01 -4.641721332414E-01
C44 -4.547156376609E-01 -2.098586627087E-01 -3.582786675858E-02
H45 -4.185580552498E-01 -1.265038193061E-01  4.344855478771E-01
H46  4.185580552498E-01  3.734961806939E-01  6.551445212287E-02
H47  4.185580552498E-01  1.265038193061E-01 -4.344855478771E-01
H48 -4.185580552498E-01 -3.734961806939E-01 -6.551445212287E-02


#===END

data_OPT_STEP_12

_symmetry_space_group_name_H-M 'P 1'
_cell_length_a      9.41915479
_cell_length_b      6.20714677
_cell_length_c      8.32563498
_cell_angle_alpha   90.000000
_cell_angle_beta  100.049352
_cell_angle_gamma   90.000000

loop_
_atom_site_label
_atom_site_fract_x
_atom_site_fract_y
_atom_site_fract_z
C1 -3.634886944137E-01 -4.186187715525E-01 -4.213044343895E-01
C2  3.634886944137E-01  8.138122844753E-02 -7.869556561049E-02
C3  3.634886944137E-01  4.186187715525E-01  4.213044343895E-01
C4 -3.634886944137E-01 -8.138122844753E-02  7.869556561049E-02
C5 -2.249463854383E-01 -3.429238574092E-01 -3.388141453705E-01
C6  2.249463854383E-01  1.570761425908E-01 -1.611858546295E-01
C7  2.249463854383E-01  3.429238574092E-01  3.388141453705E-01
C8 -2.249463854383E-01 -1.570761425908E-01  1.611858546295E-01
H9 -1.898550148708E-01 -1.793439409746E-01 -3.682981484170E-01
H10  1.898550148708E-01  3.206560590254E-01 -1.317018515830E-01
H11  1.898550148708E-01  1.793439409746E-01  3.682981484170E-01
H12 -1.898550148708E-01 -3.206560590254E-01  1.317018515830E-01
C13 -1.388653578137E-01 -4.708447017697E-01 -2.257964048956E-01
C14  1.388653578137E-01  2.915529823035E-02 -2.742035951044E-01
C15  1.388653578137E-01  4.708447017697E-01  2.257964048956E-01
C16 -1.388653578137E-01 -2.915529823035E-02  2.742035951044E-01
H17 -3.260572264099E-02 -4.101287172703E-01 -1.632861796627E-01
H18  3.260572264099E-02  8.987128272969E-02 -3.367138203373E-01
H19  3.260572264099E-02  4.101287172703E-01  1.632861796627E-01
H20 -3.260572264099E-02 -8.987128272969E-02  3.367138203373E-01
C21 -1.859339499756E-01  3.171530129109E-01 -1.881452274031E-01
C22  1.859339499756E-01 -1.828469870891E-01 -3.118547725969E-01
C23  1.859339499756E-01 -3.171530129109E-01  1.881452274031E-01
C24 -1.859339499756E-01  1.828469870891E-01  3.118547725969E-01
H25 -1.165512678857E-01  2.168059892824E-01 -9.564580423406E-02
H26  1.165512678857E-01 -2.831940107176E-01 -4.043541957659E-01
H27  1.165512678857E-01 -2.168059892824E-01  9.564580423406E-02
H28 -1.165512678857E-01  2.831940107176E-01  4.043541957659E-01
C29 -3.172497280557E-01  2.385113202970E-01 -2.658015706377E-01
C30  3.172497280557E-01 -2.614886797030E-01 -2.341984293623E-01
C31  3.172497280557E-01 -2.385113202970E-01  2.658015706377E-01
C32 -3.172497280557E-01  2.614886797030E-01  2.341984293623E-01
H33 -3.533878509488E-01  7.449747357347E-02 -2.380119452312E-01
H34  3.533878509488E-01 -4.255025264265E-01 -2.619880547688E-01
H35  3.533878509488E-01 -7.449747357347E-02  2.380119452312E-01
H36 -3.533878509488E-01  4.255025264265E-01  2.619880547688E-01
C37 -4.105108731531E-01  3.671025092106E-01 -3.841061135221E-01
C38  4.105108731531E-01 -1.328974907894E-01 -1.158938864779E-01
C39  4.105108731531E-01 -3.671025092106E-01  3.841061135221E-01
C40 -4.105108731531E-01  1.328974907894E-01  1.158938864779E-01
C41 -4.539904412738E-01 -2.905791189990E-01  4.634054214510E-01
C42  4.539904412738E-01  2.094208810010E-01  3.659457854904E-02
C43  4.539904412738E-01  2.905791189990E-01 -4.634054214510E-01
C44 -4.539904412738E-01 -2.094208810010E-01 -3.659457854904E-02
H45 -4.172170885110E-01 -1.276170429961E-01  4.333137523233E-01
H46  4.172170885110E-01  3.723829570039E-01  6.668624767671E-02
H47  4.172170885110E-01  1.276170429961E-01 -4.333137523233E-01
H48 -4.172170885110E-01 -3.723829570039E-01 -6.668624767671E-02


#===END

data_OPT_STEP_13

_symmetry_space_group_name_H-M 'P 1'
_cell_length_a      9.42548381
_cell_length_b      6.18897415
_cell_length_c      8.36366193
_cell_angle_alpha   90.000000
_cell_angle_beta  100.265883
_cell_angle_gamma   90.000000

loop_
_atom_site_label
_atom_site_fract_x
_atom_site_fract_y
_atom_site_fract_z
C1 -3.635737331046E-01 -4.181835106942E-01 -4.208257650974E-01
C2  3.635737331046E-01  8.181648930581E-02 -7.917423490258E-02
C3  3.635737331046E-01  4.181835106942E-01  4.208257650974E-01
C4 -3.635737331046E-01 -8.181648930581E-02  7.917423490258E-02
C5 -2.240746694272E-01 -3.439565011313E-01 -3.398942388605E-01
C6  2.240746694272E-01  1.560434988687E-01 -1.601057611395E-01
C7  2.240746694272E-01  3.439565011313E-01  3.398942388605E-01
C8 -2.240746694272E-01 -1.560434988687E-01  1.601057611395E-01
H9 -1.886179693442E-01 -1.802257110390E-01 -3.696854856006E-01
H10  1.886179693442E-01  3.197742889610E-01 -1.303145143994E-01
H11  1.886179693442E-01  1.802257110390E-01  3.696854856006E-01
H12 -1.886179693442E-01 -3.197742889610E-01  1.303145143994E-01
C13 -1.386146922059E-01 -4.713106612491E-01 -2.258841406723E-01
C14  1.386146922059E-01  2.868933875092E-02 -2.741158593277E-01
C15  1.386146922059E-01  4.713106612491E-01  2.258841406723E-01
C16 -1.386146922059E-01 -2.868933875092E-02  2.741158593277E-01
H17 -3.232516630333E-02 -4.104826075345E-01 -1.631760080894E-01
H18  3.232516630333E-02  8.951739246552E-02 -3.368239919106E-01
H19  3.232516630333E-02  4.104826075345E-01  1.631760080894E-01
H20 -3.232516630333E-02 -8.951739246552E-02  3.368239919106E-01
C21 -1.863308466239E-01  3.170605972123E-01 -1.874386354955E-01
C22  1.863308466239E-01 -1.829394027877E-01 -3.125613645045E-01
C23  1.863308466239E-01 -3.170605972123E-01  1.874386354955E-01
C24 -1.863308466239E-01  1.829394027877E-01  3.125613645045E-01
H25 -1.170711641172E-01  2.163471769248E-01 -9.489572778595E-02
H26  1.170711641172E-01 -2.836528230752E-01 -4.051042722140E-01
H27  1.170711641172E-01 -2.163471769248E-01  9.489572778595E-02
H28 -1.170711641172E-01  2.836528230752E-01  4.051042722140E-01
C29 -3.181487491463E-01  2.390583192652E-01 -2.644525300736E-01
C30  3.181487491463E-01 -2.609416807348E-01 -2.355474699264E-01
C31  3.181487491463E-01 -2.390583192652E-01  2.644525300736E-01
C32 -3.181487491463E-01  2.609416807348E-01  2.355474699264E-01
H33 -3.551424812820E-01  7.587772273323E-02 -2.354290109763E-01
H34  3.551424812820E-01 -4.241222772668E-01 -2.645709890237E-01
H35  3.551424812820E-01 -7.587772273323E-02  2.354290109763E-01
H36 -3.551424812820E-01  4.241222772668E-01  2.645709890237E-01
C37 -4.109693482535E-01  3.673559575611E-01 -3.834648962999E-01
C38  4.109693482535E-01 -1.326440424389E-01 -1.165351037001E-01
C39  4.109693482535E-01 -3.673559575611E-01  3.834648962999E-01
C40 -4.109693482535E-01  1.326440424389E-01  1.165351037001E-01
C41 -4.536051311465E-01 -2.904790977314E-01  4.632026182697E-01
C42  4.536051311465E-01  2.095209022686E-01  3.679738173026E-02
C43  4.536051311465E-01  2.904790977314E-01 -4.632026182697E-01
C44 -4.536051311465E-01 -2.095209022686E-01 -3.679738173026E-02
H45 -4.172197022200E-01 -1.262954087937E-01  4.342644791353E-01
H46  4.172197022200E-01  3.737045912063E-01  6.573552086472E-02
H47  4.172197022200E-01  1.262954087937E-01 -4.342644791353E-01
H48 -4.172197022200E-01 -3.737045912063E-01 -6.573552086472E-02


#===END

data_OPT_STEP_14

_symmetry_space_group_name_H-M 'P 1'
_cell_length_a      9.42177486
_cell_length_b      6.15510706
_cell_length_c      8.40407502
_cell_angle_alpha   90.000000
_cell_angle_beta  100.376957
_cell_angle_gamma   90.000000

loop_
_atom_site_label
_atom_site_fract_x
_atom_site_fract_y
_atom_site_fract_z
C1 -3.629144354841E-01 -4.185468868469E-01 -4.218106637886E-01
C2  3.629144354841E-01  8.145311315312E-02 -7.818933621138E-02
C3  3.629144354841E-01  4.185468868469E-01  4.218106637886E-01
C4 -3.629144354841E-01 -8.145311315312E-02  7.818933621138E-02
C5 -2.236104598571E-01 -3.432685864797E-01 -3.402639976191E-01
C6  2.236104598571E-01  1.567314135203E-01 -1.597360023809E-01
C7  2.236104598571E-01  3.432685864797E-01  3.402639976191E-01
C8 -2.236104598571E-01 -1.567314135203E-01  1.597360023809E-01
H9 -1.877363749937E-01 -1.784988680724E-01 -3.700759744579E-01
H10  1.877363749937E-01  3.215011319276E-01 -1.299240255421E-01
H11  1.877363749937E-01  1.784988680724E-01  3.700759744579E-01
H12 -1.877363749937E-01 -3.215011319276E-01  1.299240255421E-01
C13 -1.385478246107E-01 -4.706748409046E-01 -2.256881427355E-01
C14  1.385478246107E-01  2.932515909539E-02 -2.743118572645E-01
C15  1.385478246107E-01  4.706748409046E-01  2.256881427355E-01
C16 -1.385478246107E-01 -2.932515909539E-02  2.743118572645E-01
H17 -3.214587567318E-02 -4.090832105564E-01 -1.626444092554E-01
H18  3.214587567318E-02  9.091678944359E-02 -3.373555907446E-01
H19  3.214587567318E-02  4.090832105564E-01  1.626444092554E-01
H20 -3.214587567318E-02 -9.091678944359E-02  3.373555907446E-01
C21 -1.864656999897E-01  3.165918090148E-01 -1.872936580752E-01
C22  1.864656999897E-01 -1.834081909852E-01 -3.127063419248E-01
C23  1.864656999897E-01 -3.165918090148E-01  1.872936580752E-01
C24 -1.864656999897E-01  1.834081909852E-01  3.127063419248E-01
H25 -1.167506543696E-01  2.147964114316E-01 -9.521650341353E-02
H26  1.167506543696E-01 -2.852035885684E-01 -4.047834965865E-01
H27  1.167506543696E-01 -2.147964114316E-01  9.521650341353E-02
H28 -1.167506543696E-01  2.852035885684E-01  4.047834965865E-01
C29 -3.180712845195E-01  2.373966781742E-01 -2.650201894615E-01
C30  3.180712845195E-01 -2.626033218258E-01 -2.349798105385E-01
C31  3.180712845195E-01 -2.373966781742E-01  2.650201894615E-01
C32 -3.180712845195E-01  2.626033218258E-01  2.349798105385E-01
H33 -3.552905610167E-01  7.353579898631E-02 -2.354921935963E-01
H34  3.552905610167E-01 -4.264642010137E-01 -2.645078064037E-01
H35  3.552905610167E-01 -7.353579898631E-02  2.354921935963E-01
H36 -3.552905610167E-01  4.264642010137E-01  2.645078064037E-01
C37 -4.107408376062E-01  3.662111574037E-01 -3.841018219548E-01
C38  4.107408376062E-01 -1.337888425963E-01 -1.158981780452E-01
C39  4.107408376062E-01 -3.662111574037E-01  3.841018219548E-01
C40 -4.107408376062E-01  1.337888425963E-01  1.158981780452E-01
C41 -4.530432310667E-01 -2.898758199124E-01  4.626307456658E-01
C42  4.530432310667E-01  2.101241800876E-01  3.736925433416E-02
C43  4.530432310667E-01  2.898758199124E-01 -4.626307456658E-01
C44 -4.530432310667E-01 -2.101241800876E-01 -3.736925433416E-02
H45 -4.162427607320E-01 -1.251070716492E-01  4.331849863881E-01
H46  4.162427607320E-01  3.748929283508E-01  6.681501361191E-02
H47  4.162427607320E-01  1.251070716492E-01 -4.331849863881E-01
H48 -4.162427607320E-01 -3.748929283508E-01 -6.681501361191E-02


#===END

data_OPT_STEP_15

_symmetry_space_group_name_H-M 'P 1'
_cell_length_a      9.37389449
_cell_length_b      6.15598064
_cell_length_c      8.40677505
_cell_angle_alpha   90.000000
_cell_angle_beta  100.070957
_cell_angle_gamma   90.000000

loop_
_atom_site_label
_atom_site_fract_x
_atom_site_fract_y
_atom_site_fract_z
C1 -3.628497532402E-01 -4.180843194106E-01 -4.213090578842E-01
C2  3.628497532402E-01  8.191568058935E-02 -7.869094211584E-02
C3  3.628497532402E-01  4.180843194106E-01  4.213090578842E-01
C4 -3.628497532402E-01 -8.191568058935E-02  7.869094211584E-02
C5 -2.234410709293E-01 -3.423989750717E-01 -3.393591522330E-01
C6  2.234410709293E-01  1.576010249283E-01 -1.606408477670E-01
C7  2.234410709293E-01  3.423989750717E-01  3.393591522330E-01
C8 -2.234410709293E-01 -1.576010249283E-01  1.606408477670E-01
H9 -1.870713757109E-01 -1.774017639490E-01 -3.692295160043E-01
H10  1.870713757109E-01  3.225982360510E-01 -1.307704839957E-01
H11  1.870713757109E-01  1.774017639490E-01  3.692295160043E-01
H12 -1.870713757109E-01 -3.225982360510E-01  1.307704839957E-01
C13 -1.382294546561E-01 -4.705944500077E-01 -2.254971505417E-01
C14  1.382294546561E-01  2.940554999227E-02 -2.745028494583E-01
C15  1.382294546561E-01  4.705944500077E-01  2.254971505417E-01
C16 -1.382294546561E-01 -2.940554999227E-02  2.745028494583E-01
H17 -3.144649981659E-02 -4.090957918850E-01 -1.627375744987E-01
H18  3.144649981659E-02  9.090420811496E-02 -3.372624255013E-01
H19  3.144649981659E-02  4.090957918850E-01  1.627375744987E-01
H20 -3.144649981659E-02 -9.090420811496E-02  3.372624255013E-01
C21 -1.869999934700E-01  3.170189779901E-01 -1.865797397799E-01
C22  1.869999934700E-01 -1.829810220099E-01 -3.134202602201E-01
C23  1.869999934700E-01 -3.170189779901E-01  1.865797397799E-01
C24 -1.869999934700E-01  1.829810220099E-01  3.134202602201E-01
H25 -1.176202765680E-01  2.151583680092E-01 -9.427753147664E-02
H26  1.176202765680E-01 -2.848416319908E-01 -4.057224685234E-01
H27  1.176202765680E-01 -2.151583680092E-01  9.427753147664E-02
H28 -1.176202765680E-01  2.848416319908E-01  4.057224685234E-01
C29 -3.191598520536E-01  2.382294167229E-01 -2.638606056184E-01
C30  3.191598520536E-01 -2.617705832771E-01 -2.361393943816E-01
C31  3.191598520536E-01 -2.382294167229E-01  2.638606056184E-01
C32 -3.191598520536E-01  2.617705832771E-01  2.361393943816E-01
H33 -3.568994467409E-01  7.452955295682E-02 -2.340225288722E-01
H34  3.568994467409E-01 -4.254704470432E-01 -2.659774711278E-01
H35  3.568994467409E-01 -7.452955295682E-02  2.340225288722E-01
H36 -3.568994467409E-01  4.254704470432E-01  2.659774711278E-01
C37 -4.114473671159E-01  3.669243178262E-01 -3.832110055693E-01
C38  4.114473671159E-01 -1.330756821738E-01 -1.167889944307E-01
C39  4.114473671159E-01 -3.669243178262E-01  3.832110055693E-01
C40 -4.114473671159E-01  1.330756821738E-01  1.167889944307E-01
C41 -4.526723090362E-01 -2.894097092287E-01  4.629864815183E-01
C42  4.526723090362E-01  2.105902907713E-01  3.701351848165E-02
C43  4.526723090362E-01  2.894097092287E-01 -4.629864815183E-01
C44 -4.526723090362E-01 -2.105902907713E-01 -3.701351848165E-02
H45 -4.150170649561E-01 -1.252823149731E-01  4.326779222680E-01
H46  4.150170649561E-01  3.747176850269E-01  6.732207773201E-02
H47  4.150170649561E-01  1.252823149731E-01 -4.326779222680E-01
H48 -4.150170649561E-01 -3.747176850269E-01 -6.732207773201E-02


#===END

data_OPT_STEP_16

_symmetry_space_group_name_H-M 'P 1'
_cell_length_a      9.39455173
_cell_length_b      6.13704747
_cell_length_c      8.44577586
_cell_angle_alpha   90.000000
_cell_angle_beta  100.445645
_cell_angle_gamma   90.000000

loop_
_atom_site_label
_atom_site_fract_x
_atom_site_fract_y
_atom_site_fract_z
C1 -3.625146783303E-01 -4.184453083493E-01 -4.216484708917E-01
C2  3.625146783303E-01  8.155469165070E-02 -7.835152910834E-02
C3  3.625146783303E-01  4.184453083493E-01  4.216484708917E-01
C4 -3.625146783303E-01 -8.155469165070E-02  7.835152910834E-02
C5 -2.228452118948E-01 -3.430956345407E-01 -3.399156160216E-01
C6  2.228452118948E-01  1.569043654593E-01 -1.600843839784E-01
C7  2.228452118948E-01  3.430956345407E-01  3.399156160216E-01
C8 -2.228452118948E-01 -1.569043654593E-01  1.600843839784E-01
H9 -1.861256465571E-01 -1.782117170137E-01 -3.702092554573E-01
H10  1.861256465571E-01  3.217882829863E-01 -1.297907445427E-01
H11  1.861256465571E-01  1.782117170137E-01  3.702092554573E-01
H12 -1.861256465571E-01 -3.217882829863E-01  1.297907445427E-01
C13 -1.377626075728E-01 -4.714217883859E-01 -2.257176906077E-01
C14  1.377626075728E-01  2.857821161412E-02 -2.742823093923E-01
C15  1.377626075728E-01  4.714217883859E-01  2.257176906077E-01
C16 -1.377626075728E-01 -2.857821161412E-02  2.742823093923E-01
H17 -3.103491247919E-02 -4.097845636182E-01 -1.626727411667E-01
H18  3.103491247919E-02  9.021543638175E-02 -3.373272588333E-01
H19  3.103491247919E-02  4.097845636182E-01  1.626727411667E-01
H20 -3.103491247919E-02 -9.021543638175E-02  3.373272588333E-01
C21 -1.866218346638E-01  3.157944024987E-01 -1.869459880206E-01
C22  1.866218346638E-01 -1.842055975013E-01 -3.130540119794E-01
C23  1.866218346638E-01 -3.157944024987E-01  1.869459880206E-01
C24 -1.866218346638E-01  1.842055975013E-01  3.130540119794E-01
H25 -1.178677977532E-01  2.143120323913E-01 -9.373896864590E-02
H26  1.178677977532E-01 -2.856879676087E-01 -4.062610313541E-01
H27  1.178677977532E-01 -2.143120323913E-01  9.373896864590E-02
H28 -1.178677977532E-01  2.856879676087E-01  4.062610313541E-01
C29 -3.188654544345E-01  2.370904164186E-01 -2.643089247091E-01
C30  3.188654544345E-01 -2.629095835814E-01 -2.356910752909E-01
C31  3.188654544345E-01 -2.370904164186E-01  2.643089247091E-01
C32 -3.188654544345E-01  2.629095835814E-01  2.356910752909E-01
H33 -3.564326147024E-01  7.268423976626E-02 -2.350826585574E-01
H34  3.564326147024E-01 -4.273157602337E-01 -2.649173414426E-01
H35  3.564326147024E-01 -7.268423976626E-02  2.350826585574E-01
H36 -3.564326147024E-01  4.273157602337E-01  2.649173414426E-01
C37 -4.110798744425E-01  3.660294872157E-01 -3.838165973119E-01
C38  4.110798744425E-01 -1.339705127843E-01 -1.161834026881E-01
C39  4.110798744425E-01 -3.660294872157E-01  3.838165973119E-01
C40 -4.110798744425E-01  1.339705127843E-01  1.161834026881E-01
C41 -4.525984485909E-01 -2.890740278901E-01  4.629620410055E-01
C42  4.525984485909E-01  2.109259721099E-01  3.703795899449E-02
C43  4.525984485909E-01  2.890740278901E-01 -4.629620410055E-01
C44 -4.525984485909E-01 -2.109259721099E-01 -3.703795899449E-02
H45 -4.147922858489E-01 -1.248222281894E-01  4.324747531640E-01
H46  4.147922858489E-01  3.751777718106E-01  6.752524683602E-02
H47  4.147922858489E-01  1.248222281894E-01 -4.324747531640E-01
H48 -4.147922858489E-01 -3.751777718106E-01 -6.752524683602E-02


#===END

data_OPT_STEP_17

_symmetry_space_group_name_H-M 'P 1'
_cell_length_a      9.36199955
_cell_length_b      6.08985560
_cell_length_c      8.50446149
_cell_angle_alpha   90.000000
_cell_angle_beta  100.552643
_cell_angle_gamma   90.000000

loop_
_atom_site_label
_atom_site_fract_x
_atom_site_fract_y
_atom_site_fract_z
C1 -3.621272168000E-01 -4.179637337339E-01 -4.215597190711E-01
C2  3.621272168000E-01  8.203626626613E-02 -7.844028092895E-02
C3  3.621272168000E-01  4.179637337339E-01  4.215597190711E-01
C4 -3.621272168000E-01 -8.203626626613E-02  7.844028092895E-02
C5 -2.222302144727E-01 -3.419207227611E-01 -3.393629587284E-01
C6  2.222302144727E-01  1.580792772389E-01 -1.606370412716E-01
C7  2.222302144727E-01  3.419207227611E-01  3.393629587284E-01
C8 -2.222302144727E-01 -1.580792772389E-01  1.606370412716E-01
H9 -1.847365807052E-01 -1.769693804429E-01 -3.702850415556E-01
H10  1.847365807052E-01  3.230306195571E-01 -1.297149584444E-01
H11  1.847365807052E-01  1.769693804429E-01  3.702850415556E-01
H12 -1.847365807052E-01 -3.230306195571E-01  1.297149584444E-01
C13 -1.376530486064E-01 -4.703376189048E-01 -2.246182416488E-01
C14  1.376530486064E-01  2.966238109519E-02 -2.753817583512E-01
C15  1.376530486064E-01  4.703376189048E-01  2.246182416488E-01
C16 -1.376530486064E-01 -2.966238109519E-02  2.753817583512E-01
H17 -3.065875865957E-02 -4.086588227716E-01 -1.618672688060E-01
H18  3.065875865957E-02  9.134117722839E-02 -3.381327311940E-01
H19  3.065875865957E-02  4.086588227716E-01  1.618672688060E-01
H20 -3.065875865957E-02 -9.134117722839E-02  3.381327311940E-01
C21 -1.871032695313E-01  3.156299092318E-01 -1.860350963840E-01
C22  1.871032695313E-01 -1.843700907682E-01 -3.139649036160E-01
C23  1.871032695313E-01 -3.156299092318E-01  1.860350963840E-01
C24 -1.871032695313E-01  1.843700907682E-01  3.139649036160E-01
H25 -1.186406653164E-01  2.134573696129E-01 -9.315542615193E-02
H26  1.186406653164E-01 -2.865426303871E-01 -4.068445738481E-01
H27  1.186406653164E-01 -2.134573696129E-01  9.315542615193E-02
H28 -1.186406653164E-01  2.865426303871E-01  4.068445738481E-01
C29 -3.193748407405E-01  2.359122196450E-01 -2.641303026858E-01
C30  3.193748407405E-01 -2.640877803550E-01 -2.358696973142E-01
C31  3.193748407405E-01 -2.359122196450E-01  2.641303026858E-01
C32 -3.193748407405E-01  2.640877803550E-01  2.358696973142E-01
H33 -3.573065096080E-01  7.043659950639E-02 -2.354472792004E-01
H34  3.573065096080E-01 -4.295634004936E-01 -2.645527207996E-01
H35  3.573065096080E-01 -7.043659950639E-02  2.354472792004E-01
H36 -3.573065096080E-01  4.295634004936E-01  2.645527207996E-01
C37 -4.115106215802E-01  3.656920922847E-01 -3.834326085054E-01
C38  4.115106215802E-01 -1.343079077153E-01 -1.165673914946E-01
C39  4.115106215802E-01 -3.656920922847E-01  3.834326085054E-01
C40 -4.115106215802E-01  1.343079077153E-01  1.165673914946E-01
C41 -4.517090439743E-01 -2.884356159218E-01  4.624648030933E-01
C42  4.517090439743E-01  2.115643840782E-01  3.753519690667E-02
C43  4.517090439743E-01  2.884356159218E-01 -4.624648030933E-01
C44 -4.517090439743E-01 -2.115643840782E-01 -3.753519690667E-02
H45 -4.143518556117E-01 -1.218800394768E-01  4.338699665194E-01
H46  4.143518556117E-01  3.781199605232E-01  6.613003348063E-02
H47  4.143518556117E-01  1.218800394768E-01 -4.338699665194E-01
H48 -4.143518556117E-01 -3.781199605232E-01 -6.613003348063E-02


#===END

data_OPT_STEP_18

_symmetry_space_group_name_H-M 'P 1'
_cell_length_a      9.38144022
_cell_length_b      6.12643654
_cell_length_c      8.45628295
_cell_angle_alpha   90.000000
_cell_angle_beta  100.433172
_cell_angle_gamma   90.000000

loop_
_atom_site_label
_atom_site_fract_x
_atom_site_fract_y
_atom_site_fract_z
C1 -3.623672507749E-01 -4.183726531167E-01 -4.216738652979E-01
C2  3.623672507749E-01  8.162734688326E-02 -7.832613470208E-02
C3  3.623672507749E-01  4.183726531167E-01  4.216738652979E-01
C4 -3.623672507749E-01 -8.162734688326E-02  7.832613470208E-02
C5 -2.226031169847E-01 -3.428745366793E-01 -3.398365164546E-01
C6  2.226031169847E-01  1.571254633207E-01 -1.601634835454E-01
C7  2.226031169847E-01  3.428745366793E-01  3.398365164546E-01
C8 -2.226031169847E-01 -1.571254633207E-01  1.601634835454E-01
H9 -1.856538467605E-01 -1.780438249753E-01 -3.703112601536E-01
H10  1.856538467605E-01  3.219561750247E-01 -1.296887398464E-01
H11  1.856538467605E-01  1.780438249753E-01  3.703112601536E-01
H12 -1.856538467605E-01 -3.219561750247E-01  1.296887398464E-01
C13 -1.376818796421E-01 -4.711520618643E-01 -2.254341330861E-01
C14  1.376818796421E-01  2.884793813566E-02 -2.745658669139E-01
C15  1.376818796421E-01  4.711520618643E-01  2.254341330861E-01
C16 -1.376818796421E-01 -2.884793813566E-02  2.745658669139E-01
H17 -3.086608985102E-02 -4.095770301521E-01 -1.625157982012E-01
H18  3.086608985102E-02  9.042296984787E-02 -3.374842017988E-01
H19  3.086608985102E-02  4.095770301521E-01  1.625157982012E-01
H20 -3.086608985102E-02 -9.042296984787E-02  3.374842017988E-01
C21 -1.867343764218E-01  3.158057228394E-01 -1.866702746565E-01
C22  1.867343764218E-01 -1.841942771606E-01 -3.133297253435E-01
C23  1.867343764218E-01 -3.158057228394E-01  1.866702746565E-01
C24 -1.867343764218E-01  1.841942771606E-01  3.133297253435E-01
H25 -1.181078866957E-01  2.142204730734E-01 -9.350343776919E-02
H26  1.181078866957E-01 -2.857795269266E-01 -4.064965622308E-01
H27  1.181078866957E-01 -2.142204730734E-01  9.350343776919E-02
H28 -1.181078866957E-01  2.857795269266E-01  4.064965622308E-01
C29 -3.189403774415E-01  2.367502902964E-01 -2.643397974354E-01
C30  3.189403774415E-01 -2.632497097036E-01 -2.356602025646E-01
C31  3.189403774415E-01 -2.367502902964E-01  2.643397974354E-01
C32 -3.189403774415E-01  2.632497097036E-01  2.356602025646E-01
H33 -3.565949887500E-01  7.205914330940E-02 -2.353279539554E-01
H34  3.565949887500E-01 -4.279408566906E-01 -2.646720460446E-01
H35  3.565949887500E-01 -7.205914330940E-02  2.353279539554E-01
H36 -3.565949887500E-01  4.279408566906E-01  2.646720460446E-01
C37 -4.111670676153E-01  3.659337157424E-01 -3.837522801589E-01
C38  4.111670676153E-01 -1.340662842576E-01 -1.162477198411E-01
C39  4.111670676153E-01 -3.659337157424E-01  3.837522801589E-01
C40 -4.111670676153E-01  1.340662842576E-01  1.162477198411E-01
C41 -4.523358123649E-01 -2.889759231279E-01  4.627897273895E-01
C42  4.523358123649E-01  2.110240768721E-01  3.721027261053E-02
C43  4.523358123649E-01  2.889759231279E-01 -4.627897273895E-01
C44 -4.523358123649E-01 -2.110240768721E-01 -3.721027261053E-02
H45 -4.147699219744E-01 -1.239406909585E-01  4.330552067977E-01
H46  4.147699219744E-01  3.760593090415E-01  6.694479320226E-02
H47  4.147699219744E-01  1.239406909585E-01 -4.330552067977E-01
H48 -4.147699219744E-01 -3.760593090415E-01 -6.694479320226E-02


#===END

data_OPT_STEP_19

_symmetry_space_group_name_H-M 'P 1'
_cell_length_a      9.37924363
_cell_length_b      6.11868462
_cell_length_c      8.47282277
_cell_angle_alpha   90.000000
_cell_angle_beta  100.515455
_cell_angle_gamma   90.000000

loop_
_atom_site_label
_atom_site_fract_x
_atom_site_fract_y
_atom_site_fract_z
C1 -3.623153449829E-01 -4.182153337840E-01 -4.215873258729E-01
C2  3.623153449829E-01  8.178466621599E-02 -7.841267412715E-02
C3  3.623153449829E-01  4.182153337840E-01  4.215873258729E-01
C4 -3.623153449829E-01 -8.178466621599E-02  7.841267412715E-02
C5 -2.223213269600E-01 -3.428859978088E-01 -3.399874605379E-01
C6  2.223213269600E-01  1.571140021912E-01 -1.600125394621E-01
C7  2.223213269600E-01  3.428859978088E-01  3.399874605379E-01
C8 -2.223213269600E-01 -1.571140021912E-01  1.600125394621E-01
H9 -1.852055482632E-01 -1.780522658471E-01 -3.704478084280E-01
H10  1.852055482632E-01  3.219477341529E-01 -1.295521915720E-01
H11  1.852055482632E-01  1.780522658471E-01  3.704478084280E-01
H12 -1.852055482632E-01 -3.219477341529E-01  1.295521915720E-01
C13 -1.374994811705E-01 -4.710710892012E-01 -2.254199122932E-01
C14  1.374994811705E-01  2.892891079875E-02 -2.745800877068E-01
C15  1.374994811705E-01  4.710710892012E-01  2.254199122932E-01
C16 -1.374994811705E-01 -2.892891079875E-02  2.745800877068E-01
H17 -3.060957784179E-02 -4.094974482453E-01 -1.625497172406E-01
H18  3.060957784179E-02  9.050255175466E-02 -3.374502827594E-01
H19  3.060957784179E-02  4.094974482453E-01  1.625497172406E-01
H20 -3.060957784179E-02 -9.050255175466E-02  3.374502827594E-01
C21 -1.869084014310E-01  3.162272874914E-01 -1.861499305060E-01
C22  1.869084014310E-01 -1.837727125086E-01 -3.138500694940E-01
C23  1.869084014310E-01 -3.162272874914E-01  1.861499305060E-01
C24 -1.869084014310E-01  1.837727125086E-01  3.138500694940E-01
H25 -1.181550769723E-01  2.144924196950E-01 -9.319547583353E-02
H26  1.181550769723E-01 -2.855075803050E-01 -4.068045241665E-01
H27  1.181550769723E-01 -2.144924196950E-01  9.319547583353E-02
H28 -1.181550769723E-01  2.855075803050E-01  4.068045241665E-01
C29 -3.190900158857E-01  2.369021944177E-01 -2.640200353673E-01
C30  3.190900158857E-01 -2.630978055823E-01 -2.359799646327E-01
C31  3.190900158857E-01 -2.369021944177E-01  2.640200353673E-01
C32 -3.190900158857E-01  2.630978055823E-01  2.359799646327E-01
H33 -3.569061737763E-01  7.223966441250E-02 -2.348375807980E-01
H34  3.569061737763E-01 -4.277603355875E-01 -2.651624192020E-01
H35  3.569061737763E-01 -7.223966441250E-02  2.348375807980E-01
H36 -3.569061737763E-01  4.277603355875E-01  2.651624192020E-01
C37 -4.111718962913E-01  3.659016731255E-01 -3.837341884649E-01
C38  4.111718962913E-01 -1.340983268745E-01 -1.162658115351E-01
C39  4.111718962913E-01 -3.659016731255E-01  3.837341884649E-01
C40 -4.111718962913E-01  1.340983268745E-01  1.162658115351E-01
C41 -4.522332742287E-01 -2.888702733101E-01  4.627659158105E-01
C42  4.522332742287E-01  2.111297266899E-01  3.723408418953E-02
C43  4.522332742287E-01  2.888702733101E-01 -4.627659158105E-01
C44 -4.522332742287E-01 -2.111297266899E-01 -3.723408418953E-02
H45 -4.144223644243E-01 -1.240160614315E-01  4.326959524674E-01
H46  4.144223644243E-01  3.759839385685E-01  6.730404753263E-02
H47  4.144223644243E-01  1.240160614315E-01 -4.326959524674E-01
H48 -4.144223644243E-01 -3.759839385685E-01 -6.730404753263E-02


#===END

data_OPT_STEP_20

_symmetry_space_group_name_H-M 'P 1'
_cell_length_a      9.38014074
_cell_length_b      6.10904102
_cell_length_c      8.48633919
_cell_angle_alpha   90.000000
_cell_angle_beta  100.609814
_cell_angle_gamma   90.000000

loop_
_atom_site_label
_atom_site_fract_x
_atom_site_fract_y
_atom_site_fract_z
C1 -3.621614883683E-01 -4.181637882029E-01 -4.217365890568E-01
C2  3.621614883683E-01  8.183621179706E-02 -7.826341094319E-02
C3  3.621614883683E-01  4.181637882029E-01  4.217365890568E-01
C4 -3.621614883683E-01 -8.183621179706E-02  7.826341094319E-02
C5 -2.220747793058E-01 -3.427105715844E-01 -3.401594784890E-01
C6  2.220747793058E-01  1.572894284156E-01 -1.598405215110E-01
C7  2.220747793058E-01  3.427105715844E-01  3.401594784890E-01
C8 -2.220747793058E-01 -1.572894284156E-01  1.598405215110E-01
H9 -1.847763362353E-01 -1.777666270599E-01 -3.706490866522E-01
H10  1.847763362353E-01  3.222333729401E-01 -1.293509133478E-01
H11  1.847763362353E-01  1.777666270599E-01  3.706490866522E-01
H12 -1.847763362353E-01 -3.222333729401E-01  1.293509133478E-01
C13 -1.372919037732E-01 -4.708923629478E-01 -2.254206133662E-01
C14  1.372919037732E-01  2.910763705218E-02 -2.745793866338E-01
C15  1.372919037732E-01  4.708923629478E-01  2.254206133662E-01
C16 -1.372919037732E-01 -2.910763705218E-02  2.745793866338E-01
H17 -3.035597828201E-02 -4.091330845746E-01 -1.624655013723E-01
H18  3.035597828201E-02  9.086691542545E-02 -3.375344986277E-01
H19  3.035597828201E-02  4.091330845746E-01  1.624655013723E-01
H20 -3.035597828201E-02 -9.086691542545E-02  3.375344986277E-01
C21 -1.866589229247E-01  3.160460748300E-01 -1.862410049646E-01
C22  1.866589229247E-01 -1.839539251700E-01 -3.137589950354E-01
C23  1.866589229247E-01 -3.160460748300E-01  1.862410049646E-01
C24 -1.866589229247E-01  1.839539251700E-01  3.137589950354E-01
H25 -1.177818180931E-01  2.142298062206E-01 -9.330842566735E-02
H26  1.177818180931E-01 -2.857701937794E-01 -4.066915743326E-01
H27  1.177818180931E-01 -2.142298062206E-01  9.330842566735E-02
H28 -1.177818180931E-01  2.857701937794E-01  4.066915743326E-01
C29 -3.190882739242E-01  2.368673391666E-01 -2.637575953491E-01
C30  3.190882739242E-01 -2.631326608334E-01 -2.362424046509E-01
C31  3.190882739242E-01 -2.368673391666E-01  2.637575953491E-01
C32 -3.190882739242E-01  2.631326608334E-01  2.362424046509E-01
H33 -3.570041941429E-01  7.211715646010E-02 -2.343600460097E-01
H34  3.570041941429E-01 -4.278828435399E-01 -2.656399539903E-01
H35  3.570041941429E-01 -7.211715646010E-02  2.343600460097E-01
H36 -3.570041941429E-01  4.278828435399E-01  2.656399539903E-01
C37 -4.112661286935E-01  3.660724090923E-01 -3.834135833407E-01
C38  4.112661286935E-01 -1.339275909077E-01 -1.165864166593E-01
C39  4.112661286935E-01 -3.660724090923E-01  3.834135833407E-01
C40 -4.112661286935E-01  1.339275909077E-01  1.165864166593E-01
C41 -4.520541169374E-01 -2.888766163613E-01  4.624338393259E-01
C42  4.520541169374E-01  2.111233836387E-01  3.756616067407E-02
C43  4.520541169374E-01  2.888766163613E-01 -4.624338393259E-01
C44 -4.520541169374E-01 -2.111233836387E-01 -3.756616067407E-02
H45 -4.141344764237E-01 -1.239456244293E-01  4.321372940153E-01
H46  4.141344764237E-01  3.760543755707E-01  6.786270598469E-02
H47  4.141344764237E-01  1.239456244293E-01 -4.321372940153E-01
H48 -4.141344764237E-01 -3.760543755707E-01 -6.786270598469E-02


#===END

data_OPT_STEP_21

_symmetry_space_group_name_H-M 'P 1'
_cell_length_a      9.36692692
_cell_length_b      6.11275777
_cell_length_c      8.50645827
_cell_angle_alpha   90.000000
_cell_angle_beta  100.706085
_cell_angle_gamma   90.000000

loop_
_atom_site_label
_atom_site_fract_x
_atom_site_fract_y
_atom_site_fract_z
C1 -3.618454443236E-01 -4.182483015750E-01 -4.217516311092E-01
C2  3.618454443236E-01  8.175169842499E-02 -7.824836889079E-02
C3  3.618454443236E-01  4.182483015750E-01  4.217516311092E-01
C4 -3.618454443236E-01 -8.175169842499E-02  7.824836889079E-02
C5 -2.214908440044E-01 -3.428401481987E-01 -3.401120220399E-01
C6  2.214908440044E-01  1.571598518013E-01 -1.598879779601E-01
C7  2.214908440044E-01  3.428401481987E-01  3.401120220399E-01
C8 -2.214908440044E-01 -1.571598518013E-01  1.598879779601E-01
H9 -1.838764293928E-01 -1.779938408757E-01 -3.704801298541E-01
H10  1.838764293928E-01  3.220061591243E-01 -1.295198701459E-01
H11  1.838764293928E-01  1.779938408757E-01  3.704801298541E-01
H12 -1.838764293928E-01 -3.220061591243E-01  1.295198701459E-01
C13 -1.365613675638E-01 -4.711482517709E-01 -2.255412268811E-01
C14  1.365613675638E-01  2.885174822915E-02 -2.744587731189E-01
C15  1.365613675638E-01  4.711482517709E-01  2.255412268811E-01
C16 -1.365613675638E-01 -2.885174822915E-02  2.744587731189E-01
H17 -2.932484748597E-02 -4.094822385448E-01 -1.626969517409E-01
H18  2.932484748597E-02  9.051776145517E-02 -3.373030482591E-01
H19  2.932484748597E-02  4.094822385448E-01  1.626969517409E-01
H20 -2.932484748597E-02 -9.051776145517E-02  3.373030482591E-01
C21 -1.862674427053E-01  3.161852455561E-01 -1.861368507056E-01
C22  1.862674427053E-01 -1.838147544439E-01 -3.138631492944E-01
C23  1.862674427053E-01 -3.161852455561E-01  1.861368507056E-01
C24 -1.862674427053E-01  1.838147544439E-01  3.138631492944E-01
H25 -1.176141494979E-01  2.149673564677E-01 -9.261795278438E-02
H26  1.176141494979E-01 -2.850326435323E-01 -4.073820472156E-01
H27  1.176141494979E-01 -2.149673564677E-01  9.261795278438E-02
H28 -1.176141494979E-01  2.850326435323E-01  4.073820472156E-01
C29 -3.189590540461E-01  2.370792378526E-01 -2.636936103410E-01
C30  3.189590540461E-01 -2.629207621474E-01 -2.363063896590E-01
C31  3.189590540461E-01 -2.370792378526E-01  2.636936103410E-01
C32 -3.189590540461E-01  2.629207621474E-01  2.363063896590E-01
H33 -3.572280050274E-01  7.277225435486E-02 -2.339321939089E-01
H34  3.572280050274E-01 -4.272277456451E-01 -2.660678060911E-01
H35  3.572280050274E-01 -7.277225435486E-02  2.339321939089E-01
H36 -3.572280050274E-01  4.272277456451E-01  2.660678060911E-01
C37 -4.111591420940E-01  3.661622529061E-01 -3.834477337690E-01
C38  4.111591420940E-01 -1.338377470939E-01 -1.165522662310E-01
C39  4.111591420940E-01 -3.661622529061E-01  3.834477337690E-01
C40 -4.111591420940E-01  1.338377470939E-01  1.165522662310E-01
C41 -4.518678185734E-01 -2.890106583147E-01  4.624785026748E-01
C42  4.518678185734E-01  2.109893416853E-01  3.752149732519E-02
C43  4.518678185734E-01  2.890106583147E-01 -4.624785026748E-01
C44 -4.518678185734E-01 -2.109893416853E-01 -3.752149732519E-02
H45 -4.140057375281E-01 -1.238271145685E-01  4.325505501313E-01
H46  4.140057375281E-01  3.761728854315E-01  6.744944986870E-02
H47  4.140057375281E-01  1.238271145685E-01 -4.325505501313E-01
H48 -4.140057375281E-01 -3.761728854315E-01 -6.744944986870E-02


#===END

data_OPT_STEP_22

_symmetry_space_group_name_H-M 'P 1'
_cell_length_a      9.36568782
_cell_length_b      6.09171271
_cell_length_c      8.53998977
_cell_angle_alpha   90.000000
_cell_angle_beta  100.883801
_cell_angle_gamma   90.000000

loop_
_atom_site_label
_atom_site_fract_x
_atom_site_fract_y
_atom_site_fract_z
C1 -3.618475567280E-01 -4.178399635375E-01 -4.214381176007E-01
C2  3.618475567280E-01  8.216003646250E-02 -7.856188239932E-02
C3  3.618475567280E-01  4.178399635375E-01  4.214381176007E-01
C4 -3.618475567280E-01 -8.216003646250E-02  7.856188239932E-02
C5 -2.214703497541E-01 -3.420977459824E-01 -3.395499631318E-01
C6  2.214703497541E-01  1.579022540176E-01 -1.604500368682E-01
C7  2.214703497541E-01  3.420977459824E-01  3.395499631318E-01
C8 -2.214703497541E-01 -1.579022540176E-01  1.604500368682E-01
H9 -1.836661985354E-01 -1.771157714778E-01 -3.700992289588E-01
H10  1.836661985354E-01  3.228842285222E-01 -1.299007710412E-01
H11  1.836661985354E-01  1.771157714778E-01  3.700992289588E-01
H12 -1.836661985354E-01 -3.228842285222E-01  1.299007710412E-01
C13 -1.365958360814E-01 -4.704975723312E-01 -2.248747195771E-01
C14  1.365958360814E-01  2.950242766885E-02 -2.751252804229E-01
C15  1.365958360814E-01  4.704975723312E-01  2.248747195771E-01
C16 -1.365958360814E-01 -2.950242766885E-02  2.751252804229E-01
H17 -2.919844216401E-02 -4.086524640334E-01 -1.621751259916E-01
H18  2.919844216401E-02  9.134753596660E-02 -3.378248740084E-01
H19  2.919844216401E-02  4.086524640334E-01  1.621751259916E-01
H20 -2.919844216401E-02 -9.134753596660E-02  3.378248740084E-01
C21 -1.863651361516E-01  3.162145898423E-01 -1.856509338550E-01
C22  1.863651361516E-01 -1.837854101577E-01 -3.143490661450E-01
C23  1.863651361516E-01 -3.162145898423E-01  1.856509338550E-01
C24 -1.863651361516E-01  1.837854101577E-01  3.143490661450E-01
H25 -1.175144724100E-01  2.145766911387E-01 -9.246387815136E-02
H26  1.175144724100E-01 -2.854233088613E-01 -4.075361218486E-01
H27  1.175144724100E-01 -2.145766911387E-01  9.246387815136E-02
H28 -1.175144724100E-01  2.854233088613E-01  4.075361218486E-01
C29 -3.191905424036E-01  2.368373256973E-01 -2.632909525620E-01
C30  3.191905424036E-01 -2.631626743027E-01 -2.367090474380E-01
C31  3.191905424036E-01 -2.368373256973E-01  2.632909525620E-01
C32 -3.191905424036E-01  2.631626743027E-01  2.367090474380E-01
H33 -3.574472604914E-01  7.194348526649E-02 -2.338545576181E-01
H34  3.574472604914E-01 -4.280565147335E-01 -2.661454423819E-01
H35  3.574472604914E-01 -7.194348526649E-02  2.338545576181E-01
H36 -3.574472604914E-01  4.280565147335E-01  2.661454423819E-01
C37 -4.112762632482E-01  3.660049213626E-01 -3.832356635630E-01
C38  4.112762632482E-01 -1.339950786374E-01 -1.167643364370E-01
C39  4.112762632482E-01 -3.660049213626E-01  3.832356635630E-01
C40 -4.112762632482E-01  1.339950786374E-01  1.167643364370E-01
C41 -4.517432757844E-01 -2.884568689624E-01  4.625839943366E-01
C42  4.517432757844E-01  2.115431310376E-01  3.741600566342E-02
C43  4.517432757844E-01  2.884568689624E-01 -4.625839943366E-01
C44 -4.517432757844E-01 -2.115431310376E-01 -3.741600566342E-02
H45 -4.136281386752E-01 -1.231278064621E-01  4.324626629819E-01
H46  4.136281386752E-01  3.768721935379E-01  6.753733701813E-02
H47  4.136281386752E-01  1.231278064621E-01 -4.324626629819E-01
H48 -4.136281386752E-01 -3.768721935379E-01 -6.753733701813E-02


#===END

data_OPT_STEP_23

_symmetry_space_group_name_H-M 'P 1'
_cell_length_a      9.34331571
_cell_length_b      6.10074010
_cell_length_c      8.48891327
_cell_angle_alpha   90.000000
_cell_angle_beta  100.653083
_cell_angle_gamma   90.000000

loop_
_atom_site_label
_atom_site_fract_x
_atom_site_fract_y
_atom_site_fract_z
C1 -3.614962953719E-01 -4.182511503801E-01 -4.219478062207E-01
C2  3.614962953719E-01  8.174884961988E-02 -7.805219377931E-02
C3  3.614962953719E-01  4.182511503801E-01  4.219478062207E-01
C4 -3.614962953719E-01 -8.174884961988E-02  7.805219377931E-02
C5 -2.207037960911E-01 -3.430039621446E-01 -3.406503749600E-01
C6  2.207037960911E-01  1.569960378554E-01 -1.593496250400E-01
C7  2.207037960911E-01  3.430039621446E-01  3.406503749600E-01
C8 -2.207037960911E-01 -1.569960378554E-01  1.593496250400E-01
H9 -1.829941125777E-01 -1.779607725626E-01 -3.709304435721E-01
H10  1.829941125777E-01  3.220392274374E-01 -1.290695564279E-01
H11  1.829941125777E-01  1.779607725626E-01  3.709304435721E-01
H12 -1.829941125777E-01 -3.220392274374E-01  1.290695564279E-01
C13 -1.359526297271E-01 -4.706143474639E-01 -2.251362423198E-01
C14  1.359526297271E-01  2.938565253607E-02 -2.748637576802E-01
C15  1.359526297271E-01  4.706143474639E-01  2.251362423198E-01
C16 -1.359526297271E-01 -2.938565253607E-02  2.748637576802E-01
H17 -2.840077549929E-02 -4.087752419386E-01 -1.626219496387E-01
H18  2.840077549929E-02  9.122475806139E-02 -3.373780503613E-01
H19  2.840077549929E-02  4.087752419386E-01  1.626219496387E-01
H20 -2.840077549929E-02 -9.122475806139E-02  3.373780503613E-01
C21 -1.856254817234E-01  3.162964725305E-01 -1.855455140389E-01
C22  1.856254817234E-01 -1.837035274695E-01 -3.144544859611E-01
C23  1.856254817234E-01 -3.162964725305E-01  1.855455140389E-01
C24 -1.856254817234E-01  1.837035274695E-01  3.144544859611E-01
H25 -1.165232339357E-01  2.150784122820E-01 -9.215758622007E-02
H26  1.165232339357E-01 -2.849215877180E-01 -4.078424137799E-01
H27  1.165232339357E-01 -2.150784122820E-01  9.215758622007E-02
H28 -1.165232339357E-01  2.849215877180E-01  4.078424137799E-01
C29 -3.184713459842E-01  2.366647934811E-01 -2.632965182514E-01
C30  3.184713459842E-01 -2.633352065189E-01 -2.367034817486E-01
C31  3.184713459842E-01 -2.366647934811E-01  2.632965182514E-01
C32 -3.184713459842E-01  2.633352065189E-01  2.367034817486E-01
H33 -3.562694713855E-01  7.127078947128E-02 -2.344389682828E-01
H34  3.562694713855E-01 -4.287292105287E-01 -2.655610317172E-01
H35  3.562694713855E-01 -7.127078947128E-02  2.344389682828E-01
H36 -3.562694713855E-01  4.287292105287E-01  2.655610317172E-01
C37 -4.108612497956E-01  3.658014411363E-01 -3.833516813466E-01
C38  4.108612497956E-01 -1.341985588637E-01 -1.166483186534E-01
C39  4.108612497956E-01 -3.658014411363E-01  3.833516813466E-01
C40 -4.108612497956E-01  1.341985588637E-01  1.166483186534E-01
C41 -4.518660241611E-01 -2.885567955307E-01  4.623358437333E-01
C42  4.518660241611E-01  2.114432044693E-01  3.766415626669E-02
C43  4.518660241611E-01  2.885567955307E-01 -4.623358437333E-01
C44 -4.518660241611E-01 -2.114432044693E-01 -3.766415626669E-02
H45 -4.136434316415E-01 -1.236319477580E-01  4.317356200549E-01
H46  4.136434316415E-01  3.763680522420E-01  6.826437994506E-02
H47  4.136434316415E-01  1.236319477580E-01 -4.317356200549E-01
H48 -4.136434316415E-01 -3.763680522420E-01 -6.826437994506E-02


#===END

data_OPT_STEP_24

_symmetry_space_group_name_H-M 'P 1'
_cell_length_a      9.36012903
_cell_length_b      6.09235695
_cell_length_c      8.52841003
_cell_angle_alpha   90.000000
_cell_angle_beta  100.856833
_cell_angle_gamma   90.000000

loop_
_atom_site_label
_atom_site_fract_x
_atom_site_fract_y
_atom_site_fract_z
C1 -3.617217689028E-01 -4.179503668985E-01 -4.215882698766E-01
C2  3.617217689028E-01  8.204963310146E-02 -7.841173012344E-02
C3  3.617217689028E-01  4.179503668985E-01  4.215882698766E-01
C4 -3.617217689028E-01 -8.204963310146E-02  7.841173012344E-02
C5 -2.211852157953E-01 -3.423586723793E-01 -3.398873721720E-01
C6  2.211852157953E-01  1.576413276207E-01 -1.601126278280E-01
C7  2.211852157953E-01  3.423586723793E-01  3.398873721720E-01
C8 -2.211852157953E-01 -1.576413276207E-01  1.601126278280E-01
H9 -1.834172152171E-01 -1.773113337794E-01 -3.703134995853E-01
H10  1.834172152171E-01  3.226886662206E-01 -1.296865004147E-01
H11  1.834172152171E-01  1.773113337794E-01  3.703134995853E-01
H12 -1.834172152171E-01 -3.226886662206E-01  1.296865004147E-01
C13 -1.363408026945E-01 -4.704976916396E-01 -2.249038395959E-01
C14  1.363408026945E-01  2.950230836043E-02 -2.750961604041E-01
C15  1.363408026945E-01  4.704976916396E-01  2.249038395959E-01
C16 -1.363408026945E-01 -2.950230836043E-02  2.750961604041E-01
H17 -2.887120319086E-02 -4.086250984299E-01 -1.622778099651E-01
H18  2.887120319086E-02  9.137490157013E-02 -3.377221900349E-01
H19  2.887120319086E-02  4.086250984299E-01  1.622778099651E-01
H20 -2.887120319086E-02 -9.137490157013E-02  3.377221900349E-01
C21 -1.860889798716E-01  3.162557974260E-01 -1.855289139190E-01
C22  1.860889798716E-01 -1.837442025740E-01 -3.144710860810E-01
C23  1.860889798716E-01 -3.162557974260E-01  1.855289139190E-01
C24 -1.860889798716E-01  1.837442025740E-01  3.144710860810E-01
H25 -1.171246517300E-01  2.147360722583E-01 -9.228950874332E-02
H26  1.171246517300E-01 -2.852639277417E-01 -4.077104912567E-01
H27  1.171246517300E-01 -2.147360722583E-01  9.228950874332E-02
H28 -1.171246517300E-01  2.852639277417E-01  4.077104912567E-01
C29 -3.189446260352E-01  2.367758411307E-01 -2.632017388659E-01
C30  3.189446260352E-01 -2.632241588693E-01 -2.367982611341E-01
C31  3.189446260352E-01 -2.367758411307E-01  2.632017388659E-01
C32 -3.189446260352E-01  2.632241588693E-01  2.367982611341E-01
H33 -3.570650853422E-01  7.170829913665E-02 -2.339233132047E-01
H34  3.570650853422E-01 -4.282917008634E-01 -2.660766867953E-01
H35  3.570650853422E-01 -7.170829913665E-02  2.339233132047E-01
H36 -3.570650853422E-01  4.282917008634E-01  2.660766867953E-01
C37 -4.111362934531E-01  3.659293600519E-01 -3.832275131704E-01
C38  4.111362934531E-01 -1.340706399481E-01 -1.167724868296E-01
C39  4.111362934531E-01 -3.659293600519E-01  3.832275131704E-01
C40 -4.111362934531E-01  1.340706399481E-01  1.167724868296E-01
C41 -4.517671368141E-01 -2.884736842229E-01  4.624602483468E-01
C42  4.517671368141E-01  2.115263157771E-01  3.753975165325E-02
C43  4.517671368141E-01  2.884736842229E-01 -4.624602483468E-01
C44 -4.517671368141E-01 -2.115263157771E-01 -3.753975165325E-02
H45 -4.135978375698E-01 -1.232775989505E-01  4.321512221260E-01
H46  4.135978375698E-01  3.767224010495E-01  6.784877787400E-02
H47  4.135978375698E-01  1.232775989505E-01 -4.321512221260E-01
H48 -4.135978375698E-01 -3.767224010495E-01 -6.784877787400E-02


#===END

data_OPT_STEP_25

_symmetry_space_group_name_H-M 'P 1'
_cell_length_a      9.36539527
_cell_length_b      6.09722898
_cell_length_c      8.51599741
_cell_angle_alpha   90.000000
_cell_angle_beta  100.861303
_cell_angle_gamma   90.000000

loop_
_atom_site_label
_atom_site_fract_x
_atom_site_fract_y
_atom_site_fract_z
C1 -3.617797613439E-01 -4.179468978664E-01 -4.215998455210E-01
C2  3.617797613439E-01  8.205310213355E-02 -7.840015447902E-02
C3  3.617797613439E-01  4.179468978664E-01  4.215998455210E-01
C4 -3.617797613439E-01 -8.205310213355E-02  7.840015447902E-02
C5 -2.212754195755E-01 -3.423696102196E-01 -3.399309544363E-01
C6  2.212754195755E-01  1.576303897804E-01 -1.600690455637E-01
C7  2.212754195755E-01  3.423696102196E-01  3.399309544363E-01
C8 -2.212754195755E-01 -1.576303897804E-01  1.600690455637E-01
H9 -1.836277631303E-01 -1.774000631334E-01 -3.703521869993E-01
H10  1.836277631303E-01  3.225999368666E-01 -1.296478130007E-01
H11  1.836277631303E-01  1.774000631334E-01  3.703521869993E-01
H12 -1.836277631303E-01 -3.225999368666E-01  1.296478130007E-01
C13 -1.362638382093E-01 -4.705196063558E-01 -2.250272744635E-01
C14  1.362638382093E-01  2.948039364420E-02 -2.749727255365E-01
C15  1.362638382093E-01  4.705196063558E-01  2.250272744635E-01
C16 -1.362638382093E-01 -2.948039364420E-02  2.749727255365E-01
H17 -2.883933788034E-02 -4.086253255447E-01 -1.623752126420E-01
H18  2.883933788034E-02  9.137467445534E-02 -3.376247873580E-01
H19  2.883933788034E-02  4.086253255447E-01  1.623752126420E-01
H20 -2.883933788034E-02 -9.137467445534E-02  3.376247873580E-01
C21 -1.858579761500E-01  3.163595740086E-01 -1.855837835010E-01
C22  1.858579761500E-01 -1.836404259914E-01 -3.144162164990E-01
C23  1.858579761500E-01 -3.163595740086E-01  1.855837835010E-01
C24 -1.858579761500E-01  1.836404259914E-01  3.144162164990E-01
H25 -1.167658644267E-01  2.149026860233E-01 -9.236530775727E-02
H26  1.167658644267E-01 -2.850973139767E-01 -4.076346922427E-01
H27  1.167658644267E-01 -2.149026860233E-01  9.236530775727E-02
H28 -1.167658644267E-01  2.850973139767E-01  4.076346922427E-01
C29 -3.186838147208E-01  2.369216502232E-01 -2.631968172050E-01
C30  3.186838147208E-01 -2.630783497768E-01 -2.368031827950E-01
C31  3.186838147208E-01 -2.369216502232E-01  2.631968172050E-01
C32 -3.186838147208E-01  2.630783497768E-01  2.368031827950E-01
H33 -3.567331694879E-01  7.200952904726E-02 -2.337871230535E-01
H34  3.567331694879E-01 -4.279904709527E-01 -2.662128769465E-01
H35  3.567331694879E-01 -7.200952904726E-02  2.337871230535E-01
H36 -3.567331694879E-01  4.279904709527E-01  2.662128769465E-01
C37 -4.110138631807E-01  3.660146519152E-01 -3.832077251576E-01
C38  4.110138631807E-01 -1.339853480848E-01 -1.167922748424E-01
C39  4.110138631807E-01 -3.660146519152E-01  3.832077251576E-01
C40 -4.110138631807E-01  1.339853480848E-01  1.167922748424E-01
C41 -4.519221411681E-01 -2.885982557381E-01  4.623890459050E-01
C42  4.519221411681E-01  2.114017442619E-01  3.761095409501E-02
C43  4.519221411681E-01  2.885982557381E-01 -4.623890459050E-01
C44 -4.519221411681E-01 -2.114017442619E-01 -3.761095409501E-02
H45 -4.138762002296E-01 -1.234833071847E-01  4.320527357855E-01
H46  4.138762002296E-01  3.765166928153E-01  6.794726421448E-02
H47  4.138762002296E-01  1.234833071847E-01 -4.320527357855E-01
H48 -4.138762002296E-01 -3.765166928153E-01 -6.794726421448E-02


#===END

data_OPT_STEP_26

_symmetry_space_group_name_H-M 'P 1'
_cell_length_a      9.36226930
_cell_length_b      6.11356179
_cell_length_c      8.50291656
_cell_angle_alpha   90.000000
_cell_angle_beta  100.867864
_cell_angle_gamma   90.000000

loop_
_atom_site_label
_atom_site_fract_x
_atom_site_fract_y
_atom_site_fract_z
C1 -3.617908606095E-01 -4.179335560941E-01 -4.214634256516E-01
C2  3.617908606095E-01  8.206644390585E-02 -7.853657434836E-02
C3  3.617908606095E-01  4.179335560941E-01  4.214634256516E-01
C4 -3.617908606095E-01 -8.206644390585E-02  7.853657434836E-02
C5 -2.212589319446E-01 -3.423330375006E-01 -3.397045111597E-01
C6  2.212589319446E-01  1.576669624994E-01 -1.602954888403E-01
C7  2.212589319446E-01  3.423330375006E-01  3.397045111597E-01
C8 -2.212589319446E-01 -1.576669624994E-01  1.602954888403E-01
H9 -1.837618326494E-01 -1.777228708930E-01 -3.702401158406E-01
H10  1.837618326494E-01  3.222771291070E-01 -1.297598841594E-01
H11  1.837618326494E-01  1.777228708930E-01  3.702401158406E-01
H12 -1.837618326494E-01 -3.222771291070E-01  1.297598841594E-01
C13 -1.359986800967E-01 -4.702143998971E-01 -2.248043509901E-01
C14  1.359986800967E-01  2.978560010293E-02 -2.751956490099E-01
C15  1.359986800967E-01  4.702143998971E-01  2.248043509901E-01
C16 -1.359986800967E-01 -2.978560010293E-02  2.751956490099E-01
H17 -2.842010386132E-02 -4.085350501994E-01 -1.623023354287E-01
H18  2.842010386132E-02  9.146494980055E-02 -3.376976645713E-01
H19  2.842010386132E-02  4.085350501994E-01  1.623023354287E-01
H20 -2.842010386132E-02 -9.146494980055E-02  3.376976645713E-01
C21 -1.854202703792E-01  3.170688486363E-01 -1.853721167645E-01
C22  1.854202703792E-01 -1.829311513637E-01 -3.146278832355E-01
C23  1.854202703792E-01 -3.170688486363E-01  1.853721167645E-01
C24 -1.854202703792E-01  1.829311513637E-01  3.146278832355E-01
H25 -1.161135931759E-01  2.158502583512E-01 -9.216088762272E-02
H26  1.161135931759E-01 -2.841497416488E-01 -4.078391123773E-01
H27  1.161135931759E-01 -2.158502583512E-01  9.216088762272E-02
H28 -1.161135931759E-01  2.841497416488E-01  4.078391123773E-01
C29 -3.182812160934E-01  2.376927110164E-01 -2.630498385142E-01
C30  3.182812160934E-01 -2.623072889836E-01 -2.369501614858E-01
C31  3.182812160934E-01 -2.376927110164E-01  2.630498385142E-01
C32 -3.182812160934E-01  2.623072889836E-01  2.369501614858E-01
H33 -3.562295371403E-01  7.315276709505E-02 -2.335784364377E-01
H34  3.562295371403E-01 -4.268472329049E-01 -2.664215635623E-01
H35  3.562295371403E-01 -7.315276709505E-02  2.335784364377E-01
H36 -3.562295371403E-01  4.268472329049E-01  2.664215635623E-01
C37 -4.108359465872E-01  3.664396957720E-01 -3.830916353329E-01
C38  4.108359465872E-01 -1.335603042280E-01 -1.169083646671E-01
C39  4.108359465872E-01 -3.664396957720E-01  3.830916353329E-01
C40 -4.108359465872E-01  1.335603042280E-01  1.169083646671E-01
C41 -4.520866948389E-01 -2.890452226419E-01  4.623819964949E-01
C42  4.520866948389E-01  2.109547773581E-01  3.761800350509E-02
C43  4.520866948389E-01  2.890452226419E-01 -4.623819964949E-01
C44 -4.520866948389E-01 -2.109547773581E-01 -3.761800350509E-02
H45 -4.142033293727E-01 -1.241965420276E-01  4.321371867882E-01
H46  4.142033293727E-01  3.758034579724E-01  6.786281321178E-02
H47  4.142033293727E-01  1.241965420276E-01 -4.321371867882E-01
H48 -4.142033293727E-01 -3.758034579724E-01 -6.786281321178E-02


#===END

data_OPT_STEP_27

_symmetry_space_group_name_H-M 'P 1'
_cell_length_a      9.36400775
_cell_length_b      6.10574624
_cell_length_c      8.50345214
_cell_angle_alpha   90.000000
_cell_angle_beta  101.002164
_cell_angle_gamma   90.000000

loop_
_atom_site_label
_atom_site_fract_x
_atom_site_fract_y
_atom_site_fract_z
C1 -3.617099932672E-01 -4.177902625823E-01 -4.213348159225E-01
C2  3.617099932672E-01  8.220973741773E-02 -7.866518407752E-02
C3  3.617099932672E-01  4.177902625823E-01  4.213348159225E-01
C4 -3.617099932672E-01 -8.220973741773E-02  7.866518407752E-02
C5 -2.210630336587E-01 -3.420862242552E-01 -3.395042212355E-01
C6  2.210630336587E-01  1.579137757448E-01 -1.604957787645E-01
C7  2.210630336587E-01  3.420862242552E-01  3.395042212355E-01
C8 -2.210630336587E-01 -1.579137757448E-01  1.604957787645E-01
H9 -1.835664059364E-01 -1.773583749143E-01 -3.701428214876E-01
H10  1.835664059364E-01  3.226416250857E-01 -1.298571785124E-01
H11  1.835664059364E-01  1.773583749143E-01  3.701428214876E-01
H12 -1.835664059364E-01 -3.226416250857E-01  1.298571785124E-01
C13 -1.355243885643E-01 -4.701738184131E-01 -2.246275405291E-01
C14  1.355243885643E-01  2.982618158688E-02 -2.753724594709E-01
C15  1.355243885643E-01  4.701738184131E-01  2.246275405291E-01
C16 -1.355243885643E-01 -2.982618158688E-02  2.753724594709E-01
H17 -2.782582903892E-02 -4.082872660742E-01 -1.621608732005E-01
H18  2.782582903892E-02  9.171273392579E-02 -3.378391267995E-01
H19  2.782582903892E-02  4.082872660742E-01  1.621608732005E-01
H20 -2.782582903892E-02 -9.171273392579E-02  3.378391267995E-01
C21 -1.849064999294E-01  3.169464639910E-01 -1.850228545544E-01
C22  1.849064999294E-01 -1.830535360090E-01 -3.149771454456E-01
C23  1.849064999294E-01 -3.169464639910E-01  1.850228545544E-01
C24 -1.849064999294E-01  1.830535360090E-01  3.149771454456E-01
H25 -1.154201150337E-01  2.156832466812E-01 -9.168824006159E-02
H26  1.154201150337E-01 -2.843167533188E-01 -4.083117599384E-01
H27  1.154201150337E-01 -2.156832466812E-01  9.168824006159E-02
H28 -1.154201150337E-01  2.843167533188E-01  4.083117599384E-01
C29 -3.179310068707E-01  2.374910186524E-01 -2.626976324651E-01
C30  3.179310068707E-01 -2.625089813476E-01 -2.373023675349E-01
C31  3.179310068707E-01 -2.374910186524E-01  2.626976324651E-01
C32 -3.179310068707E-01  2.625089813476E-01  2.373023675349E-01
H33 -3.558975049501E-01  7.289816845908E-02 -2.330162478369E-01
H34  3.558975049501E-01 -4.271018315409E-01 -2.669837521631E-01
H35  3.558975049501E-01 -7.289816845908E-02  2.330162478369E-01
H36 -3.558975049501E-01  4.271018315409E-01  2.669837521631E-01
C37 -4.106701434853E-01  3.663095752422E-01 -3.829214606396E-01
C38  4.106701434853E-01 -1.336904247578E-01 -1.170785393604E-01
C39  4.106701434853E-01 -3.663095752422E-01  3.829214606396E-01
C40 -4.106701434853E-01  1.336904247578E-01  1.170785393604E-01
C41 -4.521432942298E-01 -2.888007019289E-01  4.623309483372E-01
C42  4.521432942298E-01  2.111992980711E-01  3.766905166282E-02
C43  4.521432942298E-01  2.888007019289E-01 -4.623309483372E-01
C44 -4.521432942298E-01 -2.111992980711E-01 -3.766905166282E-02
H45 -4.142976289948E-01 -1.237769234225E-01  4.320799321210E-01
H46  4.142976289948E-01  3.762230765775E-01  6.792006787896E-02
H47  4.142976289948E-01  1.237769234225E-01 -4.320799321210E-01
H48 -4.142976289948E-01 -3.762230765775E-01 -6.792006787896E-02


#===END

data_OPT_STEP_28

_symmetry_space_group_name_H-M 'P 1'
_cell_length_a      9.36410610
_cell_length_b      6.10410892
_cell_length_c      8.50746511
_cell_angle_alpha   90.000000
_cell_angle_beta  101.050519
_cell_angle_gamma   90.000000

loop_
_atom_site_label
_atom_site_fract_x
_atom_site_fract_y
_atom_site_fract_z
C1 -3.616755360813E-01 -4.177705992932E-01 -4.212782015652E-01
C2  3.616755360813E-01  8.222940070682E-02 -7.872179843478E-02
C3  3.616755360813E-01  4.177705992932E-01  4.212782015652E-01
C4 -3.616755360813E-01 -8.222940070682E-02  7.872179843478E-02
C5 -2.209872254307E-01 -3.420381250791E-01 -3.393969468410E-01
C6  2.209872254307E-01  1.579618749209E-01 -1.606030531590E-01
C7  2.209872254307E-01  3.420381250791E-01  3.393969468410E-01
C8 -2.209872254307E-01 -1.579618749209E-01  1.606030531590E-01
H9 -1.835238532626E-01 -1.772702185502E-01 -3.700699080540E-01
H10  1.835238532626E-01  3.227297814498E-01 -1.299300919460E-01
H11  1.835238532626E-01  1.772702185502E-01  3.700699080540E-01
H12 -1.835238532626E-01 -3.227297814498E-01  1.299300919460E-01
C13 -1.354599987009E-01 -4.700743982552E-01 -2.244259183288E-01
C14  1.354599987009E-01  2.992560174476E-02 -2.755740816712E-01
C15  1.354599987009E-01  4.700743982552E-01  2.244259183288E-01
C16 -1.354599987009E-01 -2.992560174476E-02  2.755740816712E-01
H17 -2.771770005555E-02 -4.082209906618E-01 -1.619630061118E-01
H18  2.771770005555E-02  9.177900933823E-02 -3.380369938882E-01
H19  2.771770005555E-02  4.082209906618E-01  1.619630061118E-01
H20 -2.771770005555E-02 -9.177900933823E-02  3.380369938882E-01
C21 -1.848617330245E-01  3.170001449709E-01 -1.848578703883E-01
C22  1.848617330245E-01 -1.829998550291E-01 -3.151421296117E-01
C23  1.848617330245E-01 -3.170001449709E-01  1.848578703883E-01
C24 -1.848617330245E-01  1.829998550291E-01  3.151421296117E-01
H25 -1.153546634696E-01  2.156423839154E-01 -9.154848666208E-02
H26  1.153546634696E-01 -2.843576160846E-01 -4.084515133379E-01
H27  1.153546634696E-01 -2.156423839154E-01  9.154848666208E-02
H28 -1.153546634696E-01  2.843576160846E-01  4.084515133379E-01
C29 -3.179260649648E-01  2.375268531434E-01 -2.625745018931E-01
C30  3.179260649648E-01 -2.624731468566E-01 -2.374254981069E-01
C31  3.179260649648E-01 -2.375268531434E-01  2.625745018931E-01
C32 -3.179260649648E-01  2.624731468566E-01  2.374254981069E-01
H33 -3.558659523311E-01  7.285435196091E-02 -2.329704042444E-01
H34  3.558659523311E-01 -4.271456480391E-01 -2.670295957556E-01
H35  3.558659523311E-01 -7.285435196091E-02  2.329704042444E-01
H36 -3.558659523311E-01  4.271456480391E-01  2.670295957556E-01
C37 -4.106768926740E-01  3.663303561802E-01 -3.828453525278E-01
C38  4.106768926740E-01 -1.336696438198E-01 -1.171546474722E-01
C39  4.106768926740E-01 -3.663303561802E-01  3.828453525278E-01
C40 -4.106768926740E-01  1.336696438198E-01  1.171546474722E-01
C41 -4.521123404036E-01 -2.887815741765E-01  4.623220055531E-01
C42  4.521123404036E-01  2.112184258235E-01  3.767799444689E-02
C43  4.521123404036E-01  2.887815741765E-01 -4.623220055531E-01
C44 -4.521123404036E-01 -2.112184258235E-01 -3.767799444689E-02
H45 -4.142364148024E-01 -1.237658181789E-01  4.320470645907E-01
H46  4.142364148024E-01  3.762341818211E-01  6.795293540927E-02
H47  4.142364148024E-01  1.237658181789E-01 -4.320470645907E-01
H48 -4.142364148024E-01 -3.762341818211E-01 -6.795293540927E-02


#===END

data_OPT_STEP_29

_symmetry_space_group_name_H-M 'P 1'
_cell_length_a      9.36588338
_cell_length_b      6.10267732
_cell_length_c      8.50690333
_cell_angle_alpha   90.000000
_cell_angle_beta  101.101816
_cell_angle_gamma   90.000000

loop_
_atom_site_label
_atom_site_fract_x
_atom_site_fract_y
_atom_site_fract_z
C1 -3.616412114041E-01 -4.178072860272E-01 -4.211876007051E-01
C2  3.616412114041E-01  8.219271397279E-02 -7.881239929488E-02
C3  3.616412114041E-01  4.178072860272E-01  4.211876007051E-01
C4 -3.616412114041E-01 -8.219271397279E-02  7.881239929488E-02
C5 -2.209125674084E-01 -3.421002009389E-01 -3.392323617525E-01
C6  2.209125674084E-01  1.578997990611E-01 -1.607676382475E-01
C7  2.209125674084E-01  3.421002009389E-01  3.392323617525E-01
C8 -2.209125674084E-01 -1.578997990611E-01  1.607676382475E-01
H9 -1.835143275302E-01 -1.772764034959E-01 -3.699583903279E-01
H10  1.835143275302E-01  3.227235965041E-01 -1.300416096721E-01
H11  1.835143275302E-01  1.772764034959E-01  3.699583903279E-01
H12 -1.835143275302E-01 -3.227235965041E-01  1.300416096721E-01
C13 -1.353784886553E-01 -4.701390980048E-01 -2.241590081514E-01
C14  1.353784886553E-01  2.986090199521E-02 -2.758409918486E-01
C15  1.353784886553E-01  4.701390980048E-01  2.241590081514E-01
C16 -1.353784886553E-01 -2.986090199521E-02  2.758409918486E-01
H17 -2.760155685374E-02 -4.083525547014E-01 -1.616604408459E-01
H18  2.760155685374E-02  9.164744529859E-02 -3.383395591541E-01
H19  2.760155685374E-02  4.083525547014E-01  1.616604408459E-01
H20 -2.760155685374E-02 -9.164744529859E-02  3.383395591541E-01
C21 -1.847919013454E-01  3.168866700005E-01 -1.846422217722E-01
C22  1.847919013454E-01 -1.831133299995E-01 -3.153577782278E-01
C23  1.847919013454E-01 -3.168866700005E-01  1.846422217722E-01
C24 -1.847919013454E-01  1.831133299995E-01  3.153577782278E-01
H25 -1.152841682279E-01  2.154163670598E-01 -9.130268723638E-02
H26  1.152841682279E-01 -2.845836329402E-01 -4.086973127636E-01
H27  1.152841682279E-01 -2.154163670598E-01  9.130268723638E-02
H28 -1.152841682279E-01  2.845836329402E-01  4.086973127636E-01
C29 -3.178988702916E-01  2.374360394474E-01 -2.624321488495E-01
C30  3.178988702916E-01 -2.625639605526E-01 -2.375678511505E-01
C31  3.178988702916E-01 -2.374360394474E-01  2.624321488495E-01
C32 -3.178988702916E-01  2.625639605526E-01  2.375678511505E-01
H33 -3.558064025966E-01  7.267935872236E-02 -2.329025031054E-01
H34  3.558064025966E-01 -4.273206412776E-01 -2.670974968946E-01
H35  3.558064025966E-01 -7.267935872236E-02  2.329025031054E-01
H36 -3.558064025966E-01  4.273206412776E-01  2.670974968946E-01
C37 -4.106740533235E-01  3.662847508640E-01 -3.827718644633E-01
C38  4.106740533235E-01 -1.337152491360E-01 -1.172281355367E-01
C39  4.106740533235E-01 -3.662847508640E-01  3.827718644633E-01
C40 -4.106740533235E-01  1.337152491360E-01  1.172281355367E-01
C41 -4.520941343674E-01 -2.887386062019E-01  4.623611277298E-01
C42  4.520941343674E-01  2.112613937981E-01  3.763887227016E-02
C43  4.520941343674E-01  2.887386062019E-01 -4.623611277298E-01
C44 -4.520941343674E-01 -2.112613937981E-01 -3.763887227016E-02
H45 -4.142034737355E-01 -1.236956814154E-01  4.320953400259E-01
H46  4.142034737355E-01  3.763043185846E-01  6.790465997411E-02
H47  4.142034737355E-01  1.236956814154E-01 -4.320953400259E-01
H48 -4.142034737355E-01 -3.763043185846E-01 -6.790465997411E-02


#===END

data_OPT_STEP_30

_symmetry_space_group_name_H-M 'P 1'
_cell_length_a      9.36841080
_cell_length_b      6.10194254
_cell_length_c      8.50595098
_cell_angle_alpha   90.000000
_cell_angle_beta  101.144442
_cell_angle_gamma   90.000000

loop_
_atom_site_label
_atom_site_fract_x
_atom_site_fract_y
_atom_site_fract_z
C1 -3.616222914533E-01 -4.178536224956E-01 -4.211299943744E-01
C2  3.616222914533E-01  8.214637750437E-02 -7.887000562564E-02
C3  3.616222914533E-01  4.178536224956E-01  4.211299943744E-01
C4 -3.616222914533E-01 -8.214637750437E-02  7.887000562564E-02
C5 -2.208719474684E-01 -3.421862454238E-01 -3.391196315356E-01
C6  2.208719474684E-01  1.578137545762E-01 -1.608803684644E-01
C7  2.208719474684E-01  3.421862454238E-01  3.391196315356E-01
C8 -2.208719474684E-01 -1.578137545762E-01  1.608803684644E-01
H9 -1.835124926044E-01 -1.773243922042E-01 -3.698342128211E-01
H10  1.835124926044E-01  3.226756077958E-01 -1.301657871789E-01
H11  1.835124926044E-01  1.773243922042E-01  3.698342128211E-01
H12 -1.835124926044E-01 -3.226756077958E-01  1.301657871789E-01
C13 -1.353207831960E-01 -4.702799007990E-01 -2.240106391268E-01
C14  1.353207831960E-01  2.972009920104E-02 -2.759893608732E-01
C15  1.353207831960E-01  4.702799007990E-01  2.240106391268E-01
C16 -1.353207831960E-01 -2.972009920104E-02  2.759893608732E-01
H17 -2.753200681181E-02 -4.085536987013E-01 -1.614480923709E-01
H18  2.753200681181E-02  9.144630129867E-02 -3.385519076291E-01
H19  2.753200681181E-02  4.085536987013E-01  1.614480923709E-01
H20 -2.753200681181E-02 -9.144630129867E-02  3.385519076291E-01
C21 -1.847444675811E-01  3.167350524746E-01 -1.845178278949E-01
C22  1.847444675811E-01 -1.832649475254E-01 -3.154821721051E-01
C23  1.847444675811E-01 -3.167350524746E-01  1.845178278949E-01
C24 -1.847444675811E-01  1.832649475254E-01  3.154821721051E-01
H25 -1.152302941730E-01  2.151909749683E-01 -9.116150156368E-02
H26  1.152302941730E-01 -2.848090250317E-01 -4.088384984363E-01
H27  1.152302941730E-01 -2.151909749683E-01  9.116150156368E-02
H28 -1.152302941730E-01  2.848090250317E-01  4.088384984363E-01
C29 -3.178745196375E-01  2.373322268558E-01 -2.623531801049E-01
C30  3.178745196375E-01 -2.626677731442E-01 -2.376468198951E-01
C31  3.178745196375E-01 -2.373322268558E-01  2.623531801049E-01
C32 -3.178745196375E-01  2.626677731442E-01  2.376468198951E-01
H33 -3.557828219413E-01  7.256420796294E-02 -2.328404766690E-01
H34  3.557828219413E-01 -4.274357920371E-01 -2.671595233310E-01
H35  3.557828219413E-01 -7.256420796294E-02  2.328404766690E-01
H36 -3.557828219413E-01  4.274357920371E-01  2.671595233310E-01
C37 -4.106676523739E-01  3.662382530679E-01 -3.827271629630E-01
C38  4.106676523739E-01 -1.337617469321E-01 -1.172728370370E-01
C39  4.106676523739E-01 -3.662382530679E-01  3.827271629630E-01
C40 -4.106676523739E-01  1.337617469321E-01  1.172728370370E-01
C41 -4.520845730576E-01 -2.887314225400E-01  4.623723356027E-01
C42  4.520845730576E-01  2.112685774600E-01  3.762766439729E-02
C43  4.520845730576E-01  2.887314225400E-01 -4.623723356027E-01
C44 -4.520845730576E-01 -2.112685774600E-01 -3.762766439729E-02
H45 -4.141923188480E-01 -1.236748366011E-01  4.321127156692E-01
H46  4.141923188480E-01  3.763251633989E-01  6.788728433081E-02
H47  4.141923188480E-01  1.236748366011E-01 -4.321127156692E-01
H48 -4.141923188480E-01 -3.763251633989E-01 -6.788728433081E-02


#===END

data_OPT_STEP_31

_symmetry_space_group_name_H-M 'P 1'
_cell_length_a      9.37192475
_cell_length_b      6.10236401
_cell_length_c      8.50126296
_cell_angle_alpha   90.000000
_cell_angle_beta  101.196524
_cell_angle_gamma   90.000000

loop_
_atom_site_label
_atom_site_fract_x
_atom_site_fract_y
_atom_site_fract_z
C1 -3.615892469445E-01 -4.179879003809E-01 -4.210009854504E-01
C2  3.615892469445E-01  8.201209961911E-02 -7.899901454960E-02
C3  3.615892469445E-01  4.179879003809E-01  4.210009854504E-01
C4 -3.615892469445E-01 -8.201209961911E-02  7.899901454960E-02
C5 -2.208055105294E-01 -3.424543787201E-01 -3.388711980072E-01
C6  2.208055105294E-01  1.575456212799E-01 -1.611288019928E-01
C7  2.208055105294E-01  3.424543787201E-01  3.388711980072E-01
C8 -2.208055105294E-01 -1.575456212799E-01  1.611288019928E-01
H9 -1.834800728359E-01 -1.775560040578E-01 -3.695027185762E-01
H10  1.834800728359E-01  3.224439959422E-01 -1.304972814238E-01
H11  1.834800728359E-01  1.775560040578E-01  3.695027185762E-01
H12 -1.834800728359E-01 -3.224439959422E-01  1.304972814238E-01
C13 -1.352342923427E-01 -4.706988530155E-01 -2.237524750738E-01
C14  1.352342923427E-01  2.930114698450E-02 -2.762475249262E-01
C15  1.352342923427E-01  4.706988530155E-01  2.237524750738E-01
C16 -1.352342923427E-01 -2.930114698450E-02  2.762475249262E-01
H17 -2.742702347148E-02 -4.091347569041E-01 -1.610387518061E-01
H18  2.742702347148E-02  9.086524309592E-02 -3.389612481939E-01
H19  2.742702347148E-02  4.091347569041E-01  1.610387518061E-01
H20 -2.742702347148E-02 -9.086524309592E-02  3.389612481939E-01
C21 -1.846797589391E-01  3.163199924429E-01 -1.843578431673E-01
C22  1.846797589391E-01 -1.836800075571E-01 -3.156421568327E-01
C23  1.846797589391E-01 -3.163199924429E-01  1.843578431673E-01
C24 -1.846797589391E-01  1.836800075571E-01  3.156421568327E-01
H25 -1.151633763865E-01  2.146673345360E-01 -9.096643417548E-02
H26  1.151633763865E-01 -2.853326654640E-01 -4.090335658245E-01
H27  1.151633763865E-01 -2.146673345360E-01  9.096643417548E-02
H28 -1.151633763865E-01  2.853326654640E-01  4.090335658245E-01
C29 -3.178453607620E-01  2.370588363524E-01 -2.623021991458E-01
C30  3.178453607620E-01 -2.629411636476E-01 -2.376978008542E-01
C31  3.178453607620E-01 -2.370588363524E-01  2.623021991458E-01
C32 -3.178453607620E-01  2.629411636476E-01  2.376978008542E-01
H33 -3.557763073784E-01  7.229895606341E-02 -2.328556010084E-01
H34  3.557763073784E-01 -4.277010439366E-01 -2.671443989916E-01
H35  3.557763073784E-01 -7.229895606341E-02  2.328556010084E-01
H36 -3.557763073784E-01  4.277010439366E-01  2.671443989916E-01
C37 -4.106572845558E-01  3.661144958833E-01 -3.826989251834E-01
C38  4.106572845558E-01 -1.338855041167E-01 -1.173010748166E-01
C39  4.106572845558E-01 -3.661144958833E-01  3.826989251834E-01
C40 -4.106572845558E-01  1.338855041167E-01  1.173010748166E-01
C41 -4.520706316705E-01 -2.887297340117E-01  4.624756635108E-01
C42  4.520706316705E-01  2.112702659883E-01  3.752433648924E-02
C43  4.520706316705E-01  2.887297340117E-01 -4.624756635108E-01
C44 -4.520706316705E-01 -2.112702659883E-01 -3.752433648924E-02
H45 -4.141760577290E-01 -1.236510343135E-01  4.322866479768E-01
H46  4.141760577290E-01  3.763489656865E-01  6.771335202316E-02
H47  4.141760577290E-01  1.236510343135E-01 -4.322866479768E-01
H48 -4.141760577290E-01 -3.763489656865E-01 -6.771335202316E-02


#===END

data_OPT_STEP_32

_symmetry_space_group_name_H-M 'P 1'
_cell_length_a      9.37342810
_cell_length_b      6.10401873
_cell_length_c      8.49678472
_cell_angle_alpha   90.000000
_cell_angle_beta  101.238806
_cell_angle_gamma   90.000000

loop_
_atom_site_label
_atom_site_fract_x
_atom_site_fract_y
_atom_site_fract_z
C1 -3.615402513124E-01 -4.181934665812E-01 -4.208415425401E-01
C2  3.615402513124E-01  8.180653341884E-02 -7.915845745993E-02
C3  3.615402513124E-01  4.181934665812E-01  4.208415425401E-01
C4 -3.615402513124E-01 -8.180653341884E-02  7.915845745993E-02
C5 -2.207127645646E-01 -3.428654365839E-01 -3.385488741818E-01
C6  2.207127645646E-01  1.571345634161E-01 -1.614511258182E-01
C7  2.207127645646E-01  3.428654365839E-01  3.385488741818E-01
C8 -2.207127645646E-01 -1.571345634161E-01  1.614511258182E-01
H9 -1.833553199814E-01 -1.779693992154E-01 -3.690160033108E-01
H10  1.833553199814E-01  3.220306007846E-01 -1.309839966892E-01
H11  1.833553199814E-01  1.779693992154E-01  3.690160033108E-01
H12 -1.833553199814E-01 -3.220306007846E-01  1.309839966892E-01
C13 -1.351474478952E-01 -4.713147677562E-01 -2.234565565538E-01
C14  1.351474478952E-01  2.868523224381E-02 -2.765434434462E-01
C15  1.351474478952E-01  4.713147677562E-01  2.234565565538E-01
C16 -1.351474478952E-01 -2.868523224381E-02  2.765434434462E-01
H17 -2.730290823664E-02 -4.099692448773E-01 -1.605630347030E-01
H18  2.730290823664E-02  9.003075512269E-02 -3.394369652970E-01
H19  2.730290823664E-02  4.099692448773E-01  1.605630347030E-01
H20 -2.730290823664E-02 -9.003075512269E-02  3.394369652970E-01
C21 -1.846551831086E-01  3.157393088165E-01 -1.842159866227E-01
C22  1.846551831086E-01 -1.842606911835E-01 -3.157840133773E-01
C23  1.846551831086E-01 -3.157393088165E-01  1.842159866227E-01
C24 -1.846551831086E-01  1.842606911835E-01  3.157840133773E-01
H25 -1.151453242003E-01  2.139740411349E-01 -9.080953350600E-02
H26  1.151453242003E-01 -2.860259588651E-01 -4.091904664940E-01
H27  1.151453242003E-01 -2.139740411349E-01  9.080953350600E-02
H28 -1.151453242003E-01  2.860259588651E-01  4.091904664940E-01
C29 -3.178700720096E-01  2.366945890357E-01 -2.623028530171E-01
C30  3.178700720096E-01 -2.633054109643E-01 -2.376971469829E-01
C31  3.178700720096E-01 -2.366945890357E-01  2.623028530171E-01
C32 -3.178700720096E-01  2.633054109643E-01  2.376971469829E-01
H33 -3.558744408956E-01  7.199186052305E-02 -2.329501496329E-01
H34  3.558744408956E-01 -4.280081394770E-01 -2.670498503671E-01
H35  3.558744408956E-01 -7.199186052305E-02  2.329501496329E-01
H36 -3.558744408956E-01  4.280081394770E-01  2.670498503671E-01
C37 -4.106697112251E-01  3.659456984367E-01 -3.827002002783E-01
C38  4.106697112251E-01 -1.340543015633E-01 -1.172997997217E-01
C39  4.106697112251E-01 -3.659456984367E-01  3.827002002783E-01
C40 -4.106697112251E-01  1.340543015633E-01  1.172997997217E-01
C41 -4.520089490177E-01 -2.887747419960E-01  4.626217520639E-01
C42  4.520089490177E-01  2.112252580040E-01  3.737824793614E-02
C43  4.520089490177E-01  2.887747419960E-01 -4.626217520639E-01
C44 -4.520089490177E-01 -2.112252580040E-01 -3.737824793614E-02
H45 -4.140707947659E-01 -1.237166682937E-01  4.325405371910E-01
H46  4.140707947659E-01  3.762833317063E-01  6.745946280899E-02
H47  4.140707947659E-01  1.237166682937E-01 -4.325405371910E-01
H48 -4.140707947659E-01 -3.762833317063E-01 -6.745946280899E-02


#===END

data_OPT_STEP_33

_symmetry_space_group_name_H-M 'P 1'
_cell_length_a      9.37099789
_cell_length_b      6.10798668
_cell_length_c      8.49126561
_cell_angle_alpha   90.000000
_cell_angle_beta  101.253757
_cell_angle_gamma   90.000000

loop_
_atom_site_label
_atom_site_fract_x
_atom_site_fract_y
_atom_site_fract_z
C1 -3.614652776438E-01 -4.184828345325E-01 -4.206296550818E-01
C2  3.614652776438E-01  8.151716546747E-02 -7.937034491816E-02
C3  3.614652776438E-01  4.184828345325E-01  4.206296550818E-01
C4 -3.614652776438E-01 -8.151716546747E-02  7.937034491816E-02
C5 -2.205726018252E-01 -3.434540435169E-01 -3.381191956083E-01
C6  2.205726018252E-01  1.565459564831E-01 -1.618808043917E-01
C7  2.205726018252E-01  3.434540435169E-01  3.381191956083E-01
C8 -2.205726018252E-01 -1.565459564831E-01  1.618808043917E-01
H9 -1.831013388367E-01 -1.786055425564E-01 -3.683070451280E-01
H10  1.831013388367E-01  3.213944574436E-01 -1.316929548720E-01
H11  1.831013388367E-01  1.786055425564E-01  3.683070451280E-01
H12 -1.831013388367E-01 -3.213944574436E-01  1.316929548720E-01
C13 -1.350395260561E-01 -4.721681638614E-01 -2.231174833230E-01
C14  1.350395260561E-01  2.783183613858E-02 -2.768825166770E-01
C15  1.350395260561E-01  4.721681638614E-01  2.231174833230E-01
C16 -1.350395260561E-01 -2.783183613858E-02  2.768825166770E-01
H17 -2.713903154759E-02 -4.110954776734E-01 -1.600063591250E-01
H18  2.713903154759E-02  8.890452232657E-02 -3.399936408750E-01
H19  2.713903154759E-02  4.110954776734E-01  1.600063591250E-01
H20 -2.713903154759E-02 -8.890452232657E-02  3.399936408750E-01
C21 -1.846509615470E-01  3.149513806997E-01 -1.841480864889E-01
C22  1.846509615470E-01 -1.850486193003E-01 -3.158519135111E-01
C23  1.846509615470E-01 -3.149513806997E-01  1.841480864889E-01
C24 -1.846509615470E-01  1.850486193003E-01  3.158519135111E-01
H25 -1.151591571528E-01  2.130442059287E-01 -9.077101964772E-02
H26  1.151591571528E-01 -2.869557940713E-01 -4.092289803523E-01
H27  1.151591571528E-01 -2.130442059287E-01  9.077101964772E-02
H28 -1.151591571528E-01  2.869557940713E-01  4.092289803523E-01
C29 -3.179368712564E-01  2.362175147557E-01 -2.624339122170E-01
C30  3.179368712564E-01 -2.637824852443E-01 -2.375660877830E-01
C31  3.179368712564E-01 -2.362175147557E-01  2.624339122170E-01
C32 -3.179368712564E-01  2.637824852443E-01  2.375660877830E-01
H33 -3.560556078769E-01  7.160029175645E-02 -2.332685752571E-01
H34  3.560556078769E-01 -4.283997082435E-01 -2.667314247429E-01
H35  3.560556078769E-01 -7.160029175645E-02  2.332685752571E-01
H36 -3.560556078769E-01  4.283997082435E-01  2.667314247429E-01
C37 -4.107000576559E-01  3.657220170334E-01 -3.827694690615E-01
C38  4.107000576559E-01 -1.342779829666E-01 -1.172305309385E-01
C39  4.107000576559E-01 -3.657220170334E-01  3.827694690615E-01
C40 -4.107000576559E-01  1.342779829666E-01  1.172305309385E-01
C41 -4.519073027358E-01 -2.888464423024E-01  4.628949454416E-01
C42  4.519073027358E-01  2.111535576976E-01  3.710505455842E-02
C43  4.519073027358E-01  2.888464423024E-01 -4.628949454416E-01
C44 -4.519073027358E-01 -2.111535576976E-01 -3.710505455842E-02
H45 -4.138840975918E-01 -1.238456134642E-01  4.330143988940E-01
H46  4.138840975918E-01  3.761543865358E-01  6.698560110599E-02
H47  4.138840975918E-01  1.238456134642E-01 -4.330143988940E-01
H48 -4.138840975918E-01 -3.761543865358E-01 -6.698560110599E-02


#===END

data_OPT_STEP_34

_symmetry_space_group_name_H-M 'P 1'
_cell_length_a      9.36513675
_cell_length_b      6.11233033
_cell_length_c      8.48899536
_cell_angle_alpha   90.000000
_cell_angle_beta  101.238959
_cell_angle_gamma   90.000000

loop_
_atom_site_label
_atom_site_fract_x
_atom_site_fract_y
_atom_site_fract_z
C1 -3.613877014131E-01 -4.187558721679E-01 -4.204664111395E-01
C2  3.613877014131E-01  8.124412783207E-02 -7.953358886046E-02
C3  3.613877014131E-01  4.187558721679E-01  4.204664111395E-01
C4 -3.613877014131E-01 -8.124412783207E-02  7.953358886046E-02
C5 -2.204304280318E-01 -3.440072584591E-01 -3.377729102923E-01
C6  2.204304280318E-01  1.559927415409E-01 -1.622270897077E-01
C7  2.204304280318E-01  3.440072584591E-01  3.377729102923E-01
C8 -2.204304280318E-01 -1.559927415409E-01  1.622270897077E-01
H9 -1.827979273310E-01 -1.792498237578E-01 -3.677052264770E-01
H10  1.827979273310E-01  3.207501762422E-01 -1.322947735230E-01
H11  1.827979273310E-01  1.792498237578E-01  3.677052264770E-01
H12 -1.827979273310E-01 -3.207501762422E-01  1.322947735230E-01
C13 -1.349569475986E-01 -4.729082473392E-01 -2.228676490197E-01
C14  1.349569475986E-01  2.709175266082E-02 -2.771323509803E-01
C15  1.349569475986E-01  4.729082473392E-01  2.228676490197E-01
C16 -1.349569475986E-01 -2.709175266082E-02  2.771323509803E-01
H17 -2.700069504485E-02 -4.120153228702E-01 -1.596289661759E-01
H18  2.700069504485E-02  8.798467712982E-02 -3.403710338241E-01
H19  2.700069504485E-02  4.120153228702E-01  1.596289661759E-01
H20 -2.700069504485E-02 -8.798467712982E-02  3.403710338241E-01
C21 -1.846927105171E-01  3.142937630959E-01 -1.841579352996E-01
C22  1.846927105171E-01 -1.857062369041E-01 -3.158420647004E-01
C23  1.846927105171E-01 -3.142937630959E-01  1.841579352996E-01
C24 -1.846927105171E-01  1.857062369041E-01  3.158420647004E-01
H25 -1.152375230686E-01  2.122617265330E-01 -9.084818050914E-02
H26  1.152375230686E-01 -2.877382734670E-01 -4.091518194909E-01
H27  1.152375230686E-01 -2.122617265330E-01  9.084818050914E-02
H28 -1.152375230686E-01  2.877382734670E-01  4.091518194909E-01
C29 -3.180552746331E-01  2.358439614915E-01 -2.626064827647E-01
C30  3.180552746331E-01 -2.641560385085E-01 -2.373935172353E-01
C31  3.180552746331E-01 -2.358439614915E-01  2.626064827647E-01
C32 -3.180552746331E-01  2.641560385085E-01  2.373935172353E-01
H33 -3.563008250064E-01  7.132597462856E-02 -2.336161057460E-01
H34  3.563008250064E-01 -4.286740253714E-01 -2.663838942540E-01
H35  3.563008250064E-01 -7.132597462856E-02  2.336161057460E-01
H36 -3.563008250064E-01  4.286740253714E-01  2.663838942540E-01
C37 -4.107554148156E-01  3.655383273360E-01 -3.828608234359E-01
C38  4.107554148156E-01 -1.344616726640E-01 -1.171391765641E-01
C39  4.107554148156E-01 -3.655383273360E-01  3.828608234359E-01
C40 -4.107554148156E-01  1.344616726640E-01  1.171391765641E-01
C41 -4.517665087248E-01 -2.889556354811E-01  4.631288383326E-01
C42  4.517665087248E-01  2.110443645189E-01  3.687116166739E-02
C43  4.517665087248E-01  2.889556354811E-01 -4.631288383326E-01
C44 -4.517665087248E-01 -2.110443645189E-01 -3.687116166739E-02
H45 -4.136206491309E-01 -1.240621519418E-01  4.334234531645E-01
H46  4.136206491309E-01  3.759378480582E-01  6.657654683546E-02
H47  4.136206491309E-01  1.240621519418E-01 -4.334234531645E-01
H48 -4.136206491309E-01 -3.759378480582E-01 -6.657654683546E-02


#===END

data_OPT_STEP_35

_symmetry_space_group_name_H-M 'P 1'
_cell_length_a      9.35947849
_cell_length_b      6.11559752
_cell_length_c      8.48823528
_cell_angle_alpha   90.000000
_cell_angle_beta  101.206527
_cell_angle_gamma   90.000000

loop_
_atom_site_label
_atom_site_fract_x
_atom_site_fract_y
_atom_site_fract_z
C1 -3.613450771657E-01 -4.188874268790E-01 -4.204023332537E-01
C2  3.613450771657E-01  8.111257312102E-02 -7.959766674627E-02
C3  3.613450771657E-01  4.188874268790E-01  4.204023332537E-01
C4 -3.613450771657E-01 -8.111257312102E-02  7.959766674627E-02
C5 -2.203523520876E-01 -3.442768347786E-01 -3.376301111295E-01
C6  2.203523520876E-01  1.557231652214E-01 -1.623698888705E-01
C7  2.203523520876E-01  3.442768347786E-01  3.376301111295E-01
C8 -2.203523520876E-01 -1.557231652214E-01  1.623698888705E-01
H9 -1.826228078779E-01 -1.795859186088E-01 -3.674284733279E-01
H10  1.826228078779E-01  3.204140813912E-01 -1.325715266721E-01
H11  1.826228078779E-01  1.795859186088E-01  3.674284733279E-01
H12 -1.826228078779E-01 -3.204140813912E-01  1.325715266721E-01
C13 -1.349100938046E-01 -4.732329643085E-01 -2.227939916030E-01
C14  1.349100938046E-01  2.676703569150E-02 -2.772060083970E-01
C15  1.349100938046E-01  4.732329643085E-01  2.227939916030E-01
C16 -1.349100938046E-01 -2.676703569150E-02  2.772060083970E-01
H17 -2.693447836484E-02 -4.123616255629E-01 -1.595304166722E-01
H18  2.693447836484E-02  8.763837443708E-02 -3.404695833278E-01
H19  2.693447836484E-02  4.123616255629E-01  1.595304166722E-01
H20 -2.693447836484E-02 -8.763837443708E-02  3.404695833278E-01
C21 -1.847078611089E-01  3.140225539958E-01 -1.842471206577E-01
C22  1.847078611089E-01 -1.859774460042E-01 -3.157528793423E-01
C23  1.847078611089E-01 -3.140225539958E-01  1.842471206577E-01
C24 -1.847078611089E-01  1.859774460042E-01  3.157528793423E-01
H25 -1.152787273939E-01  2.119034628811E-01 -9.101897159395E-02
H26  1.152787273939E-01 -2.880965371189E-01 -4.089810284060E-01
H27  1.152787273939E-01 -2.119034628811E-01  9.101897159395E-02
H28 -1.152787273939E-01  2.880965371189E-01  4.089810284060E-01
C29 -3.181111910388E-01  2.357085482685E-01 -2.627716543785E-01
C30  3.181111910388E-01 -2.642914517315E-01 -2.372283456215E-01
C31  3.181111910388E-01 -2.357085482685E-01  2.627716543785E-01
C32 -3.181111910388E-01  2.642914517315E-01  2.372283456215E-01
H33 -3.564048085983E-01  7.123011869075E-02 -2.339057032894E-01
H34  3.564048085983E-01 -4.287698813092E-01 -2.660942967106E-01
H35  3.564048085983E-01 -7.123011869075E-02  2.339057032894E-01
H36 -3.564048085983E-01  4.287698813092E-01  2.660942967106E-01
C37 -4.107847019834E-01  3.654672522444E-01 -3.829452759151E-01
C38  4.107847019834E-01 -1.345327477556E-01 -1.170547240849E-01
C39  4.107847019834E-01 -3.654672522444E-01  3.829452759151E-01
C40 -4.107847019834E-01  1.345327477556E-01  1.170547240849E-01
C41 -4.516950369217E-01 -2.890120726328E-01  4.632817401593E-01
C42  4.516950369217E-01  2.109879273672E-01  3.671825984066E-02
C43  4.516950369217E-01  2.890120726328E-01 -4.632817401593E-01
C44 -4.516950369217E-01 -2.109879273672E-01 -3.671825984066E-02
H45 -4.134815748840E-01 -1.241870846779E-01  4.336914728965E-01
H46  4.134815748840E-01  3.758129153221E-01  6.630852710354E-02
H47  4.134815748840E-01  1.241870846779E-01 -4.336914728965E-01
H48 -4.134815748840E-01 -3.758129153221E-01 -6.630852710354E-02


#===END

data_OPT_STEP_36

_symmetry_space_group_name_H-M 'P 1'
_cell_length_a      9.35814169
_cell_length_b      6.11564315
_cell_length_c      8.48988500
_cell_angle_alpha   90.000000
_cell_angle_beta  101.199155
_cell_angle_gamma   90.000000

loop_
_atom_site_label
_atom_site_fract_x
_atom_site_fract_y
_atom_site_fract_z
C1 -3.613351953114E-01 -4.188970769408E-01 -4.204213625177E-01
C2  3.613351953114E-01  8.110292305916E-02 -7.957863748234E-02
C3  3.613351953114E-01  4.188970769408E-01  4.204213625177E-01
C4 -3.613351953114E-01 -8.110292305916E-02  7.957863748234E-02
C5 -2.203336347331E-01 -3.442955247922E-01 -3.376605861910E-01
C6  2.203336347331E-01  1.557044752078E-01 -1.623394138090E-01
C7  2.203336347331E-01  3.442955247922E-01  3.376605861910E-01
C8 -2.203336347331E-01 -1.557044752078E-01  1.623394138090E-01
H9 -1.825880110695E-01 -1.796226137690E-01 -3.674776248658E-01
H10  1.825880110695E-01  3.203773862310E-01 -1.325223751342E-01
H11  1.825880110695E-01  1.796226137690E-01  3.674776248658E-01
H12 -1.825880110695E-01 -3.203773862310E-01  1.325223751342E-01
C13 -1.349016625915E-01 -4.732173129028E-01 -2.228173642041E-01
C14  1.349016625915E-01  2.678268709720E-02 -2.771826357959E-01
C15  1.349016625915E-01  4.732173129028E-01  2.228173642041E-01
C16 -1.349016625915E-01 -2.678268709720E-02  2.771826357959E-01
H17 -2.693045047843E-02 -4.122815732500E-01 -1.595956208890E-01
H18  2.693045047843E-02  8.771842675004E-02 -3.404043791110E-01
H19  2.693045047843E-02  4.122815732500E-01  1.595956208890E-01
H20 -2.693045047843E-02 -8.771842675004E-02  3.404043791110E-01
C21 -1.847172082308E-01  3.140507489198E-01 -1.842699470498E-01
C22  1.847172082308E-01 -1.859492510802E-01 -3.157300529502E-01
C23  1.847172082308E-01 -3.140507489198E-01  1.842699470498E-01
C24 -1.847172082308E-01  1.859492510802E-01  3.157300529502E-01
H25 -1.153060689055E-01  2.119073751507E-01 -9.106368584732E-02
H26  1.153060689055E-01 -2.880926248493E-01 -4.089363141527E-01
H27  1.153060689055E-01 -2.119073751507E-01  9.106368584732E-02
H28 -1.153060689055E-01  2.880926248493E-01  4.089363141527E-01
C29 -3.181323851879E-01  2.357389492853E-01 -2.627841545204E-01
C30  3.181323851879E-01 -2.642610507147E-01 -2.372158454796E-01
C31  3.181323851879E-01 -2.357389492853E-01  2.627841545204E-01
C32 -3.181323851879E-01  2.642610507147E-01  2.372158454796E-01
H33 -3.564329142887E-01  7.126498969932E-02 -2.339147745169E-01
H34  3.564329142887E-01 -4.287350103007E-01 -2.660852254831E-01
H35  3.564329142887E-01 -7.126498969932E-02  2.339147745169E-01
H36 -3.564329142887E-01  4.287350103007E-01  2.660852254831E-01
C37 -4.107973537114E-01  3.654761310969E-01 -3.829500650723E-01
C38  4.107973537114E-01 -1.345238689031E-01 -1.170499349277E-01
C39  4.107973537114E-01 -3.654761310969E-01  3.829500650723E-01
C40 -4.107973537114E-01  1.345238689031E-01  1.170499349277E-01
C41 -4.516673920015E-01 -2.890335165443E-01  4.632619917534E-01
C42  4.516673920015E-01  2.109664834557E-01  3.673800824661E-02
C43  4.516673920015E-01  2.890335165443E-01 -4.632619917534E-01
C44 -4.516673920015E-01 -2.109664834557E-01 -3.673800824661E-02
H45 -4.134310796356E-01 -1.242313991337E-01  4.336588452600E-01
H46  4.134310796356E-01  3.757686008663E-01  6.634115474004E-02
H47  4.134310796356E-01  1.242313991337E-01 -4.336588452600E-01
H48 -4.134310796356E-01 -3.757686008663E-01 -6.634115474004E-02


#===END

data_OPT_STEP_37

_symmetry_space_group_name_H-M 'P 1'
_cell_length_a      9.35837425
_cell_length_b      6.11548359
_cell_length_c      8.48991961
_cell_angle_alpha   90.000000
_cell_angle_beta  101.199840
_cell_angle_gamma   90.000000

loop_
_atom_site_label
_atom_site_fract_x
_atom_site_fract_y
_atom_site_fract_z
C1 -3.613370307166E-01 -4.188842485901E-01 -4.204343308373E-01
C2  3.613370307166E-01  8.111575140990E-02 -7.956566916273E-02
C3  3.613370307166E-01  4.188842485901E-01  4.204343308373E-01
C4 -3.613370307166E-01 -8.111575140990E-02  7.956566916273E-02
C5 -2.203365618710E-01 -3.442697652241E-01 -3.376862923896E-01
C6  2.203365618710E-01  1.557302347759E-01 -1.623137076104E-01
C7  2.203365618710E-01  3.442697652241E-01  3.376862923896E-01
C8 -2.203365618710E-01 -1.557302347759E-01  1.623137076104E-01
H9 -1.826061469472E-01 -1.795914569871E-01 -3.675253451278E-01
H10  1.826061469472E-01  3.204085430129E-01 -1.324746548722E-01
H11  1.826061469472E-01  1.795914569871E-01  3.675253451278E-01
H12 -1.826061469472E-01 -3.204085430129E-01  1.324746548722E-01
C13 -1.348972091195E-01 -4.731753094686E-01 -2.228347695852E-01
C14  1.348972091195E-01  2.682469053137E-02 -2.771652304148E-01
C15  1.348972091195E-01  4.731753094686E-01  2.228347695852E-01
C16 -1.348972091195E-01 -2.682469053137E-02  2.771652304148E-01
H17 -2.693402605722E-02 -4.122060900810E-01 -1.596255335509E-01
H18  2.693402605722E-02  8.779390991902E-02 -3.403744664491E-01
H19  2.693402605722E-02  4.122060900810E-01  1.596255335509E-01
H20 -2.693402605722E-02 -8.779390991902E-02  3.403744664491E-01
C21 -1.847048332963E-01  3.140905357556E-01 -1.842757090046E-01
C22  1.847048332963E-01 -1.859094642444E-01 -3.157242909954E-01
C23  1.847048332963E-01 -3.140905357556E-01  1.842757090046E-01
C24 -1.847048332963E-01  1.859094642444E-01  3.157242909954E-01
H25 -1.152955894024E-01  2.119353813658E-01 -9.107368861925E-02
H26  1.152955894024E-01 -2.880646186342E-01 -4.089263113807E-01
H27  1.152955894024E-01 -2.119353813658E-01  9.107368861925E-02
H28 -1.152955894024E-01  2.880646186342E-01  4.089263113807E-01
C29 -3.181179671964E-01  2.357638375501E-01 -2.627810839869E-01
C30  3.181179671964E-01 -2.642361624499E-01 -2.372189160131E-01
C31  3.181179671964E-01 -2.357638375501E-01  2.627810839869E-01
C32 -3.181179671964E-01  2.642361624499E-01  2.372189160131E-01
H33 -3.564046547638E-01  7.127838043309E-02 -2.339070813148E-01
H34  3.564046547638E-01 -4.287216195669E-01 -2.660929186852E-01
H35  3.564046547638E-01 -7.127838043309E-02  2.339070813148E-01
H36 -3.564046547638E-01  4.287216195669E-01  2.660929186852E-01
C37 -4.107922822205E-01  3.654874300892E-01 -3.829475535251E-01
C38  4.107922822205E-01 -1.345125699108E-01 -1.170524464749E-01
C39  4.107922822205E-01 -3.654874300892E-01  3.829475535251E-01
C40 -4.107922822205E-01  1.345125699108E-01  1.170524464749E-01
C41 -4.516767103818E-01 -2.890247200166E-01  4.632529666499E-01
C42  4.516767103818E-01  2.109752799834E-01  3.674703335008E-02
C43  4.516767103818E-01  2.890247200166E-01 -4.632529666499E-01
C44 -4.516767103818E-01 -2.109752799834E-01 -3.674703335008E-02
H45 -4.134488831875E-01 -1.242138528441E-01  4.336427696479E-01
H46  4.134488831875E-01  3.757861471559E-01  6.635723035212E-02
H47  4.134488831875E-01  1.242138528441E-01 -4.336427696479E-01
H48 -4.134488831875E-01 -3.757861471559E-01 -6.635723035212E-02


#===END

data_OPT_STEP_38

_symmetry_space_group_name_H-M 'P 1'
_cell_length_a      9.35358425
_cell_length_b      6.12546735
_cell_length_c      8.46948608
_cell_angle_alpha   90.000000
_cell_angle_beta  101.081331
_cell_angle_gamma   90.000000

loop_
_atom_site_label
_atom_site_fract_x
_atom_site_fract_y
_atom_site_fract_z
C1 -3.613687296161E-01 -4.190036326873E-01 -4.204277511129E-01
C2  3.613687296161E-01  8.099636731269E-02 -7.957224888713E-02
C3  3.613687296161E-01  4.190036326873E-01  4.204277511129E-01
C4 -3.613687296161E-01 -8.099636731269E-02  7.957224888713E-02
C5 -2.203845088651E-01 -3.445221537770E-01 -3.377014687925E-01
C6  2.203845088651E-01  1.554778462230E-01 -1.622985312075E-01
C7  2.203845088651E-01  3.445221537770E-01  3.377014687925E-01
C8 -2.203845088651E-01 -1.554778462230E-01  1.622985312075E-01
H9 -1.826745592601E-01 -1.800368123671E-01 -3.675773051795E-01
H10  1.826745592601E-01  3.199631876329E-01 -1.324226948205E-01
H11  1.826745592601E-01  1.800368123671E-01  3.675773051795E-01
H12 -1.826745592601E-01 -3.199631876329E-01  1.324226948205E-01
C13 -1.349188843543E-01 -4.733595698203E-01 -2.228842360483E-01
C14  1.349188843543E-01  2.664043017970E-02 -2.771157639517E-01
C15  1.349188843543E-01  4.733595698203E-01  2.228842360483E-01
C16 -1.349188843543E-01 -2.664043017970E-02  2.771157639517E-01
H17 -2.694982502680E-02 -4.125279781562E-01 -1.597176496383E-01
H18  2.694982502680E-02  8.747202184379E-02 -3.402823503617E-01
H19  2.694982502680E-02  4.125279781562E-01  1.597176496383E-01
H20 -2.694982502680E-02 -8.747202184379E-02  3.402823503617E-01
C21 -1.846960790813E-01  3.141277681910E-01 -1.843313389033E-01
C22  1.846960790813E-01 -1.858722318090E-01 -3.156686610967E-01
C23  1.846960790813E-01 -3.141277681910E-01  1.843313389033E-01
C24 -1.846960790813E-01  1.858722318090E-01  3.156686610967E-01
H25 -1.152996436440E-01  2.120946517294E-01 -9.107342775032E-02
H26  1.152996436440E-01 -2.879053482706E-01 -4.089265722497E-01
H27  1.152996436440E-01 -2.120946517294E-01  9.107342775032E-02
H28 -1.152996436440E-01  2.879053482706E-01  4.089265722497E-01
C29 -3.180704647469E-01  2.359109879799E-01 -2.628628916539E-01
C30  3.180704647469E-01 -2.640890120201E-01 -2.371371083461E-01
C31  3.180704647469E-01 -2.359109879799E-01  2.628628916539E-01
C32 -3.180704647469E-01  2.640890120201E-01  2.371371083461E-01
H33 -3.563227652934E-01  7.157561262605E-02 -2.340309826378E-01
H34  3.563227652934E-01 -4.284243873740E-01 -2.659690173622E-01
H35  3.563227652934E-01 -7.157561262605E-02  2.340309826378E-01
H36 -3.563227652934E-01  4.284243873740E-01  2.659690173622E-01
C37 -4.107658557593E-01  3.655690866674E-01 -3.829899140797E-01
C38  4.107658557593E-01 -1.344309133326E-01 -1.170100859203E-01
C39  4.107658557593E-01 -3.655690866674E-01  3.829899140797E-01
C40 -4.107658557593E-01  1.344309133326E-01  1.170100859203E-01
C41 -4.517383177995E-01 -2.892139285442E-01  4.632971393032E-01
C42  4.517383177995E-01  2.107860714558E-01  3.670286069683E-02
C43  4.517383177995E-01  2.892139285442E-01 -4.632971393032E-01
C44 -4.517383177995E-01 -2.107860714558E-01 -3.670286069683E-02
H45 -4.135345090863E-01 -1.245829901504E-01  4.336710044342E-01
H46  4.135345090863E-01  3.754170098496E-01  6.632899556582E-02
H47  4.135345090863E-01  1.245829901504E-01 -4.336710044342E-01
H48 -4.135345090863E-01 -3.754170098496E-01 -6.632899556582E-02


#===END

data_OPT_STEP_39

_symmetry_space_group_name_H-M 'P 1'
_cell_length_a      9.35394473
_cell_length_b      6.12499873
_cell_length_c      8.47071155
_cell_angle_alpha   90.000000
_cell_angle_beta  101.087083
_cell_angle_gamma   90.000000

loop_
_atom_site_label
_atom_site_fract_x
_atom_site_fract_y
_atom_site_fract_z
C1 -3.613659470424E-01 -4.189743862022E-01 -4.204524712001E-01
C2  3.613659470424E-01  8.102561379776E-02 -7.954752879989E-02
C3  3.613659470424E-01  4.189743862022E-01  4.204524712001E-01
C4 -3.613659470424E-01 -8.102561379776E-02  7.954752879989E-02
C5 -2.203762933975E-01 -3.444763810393E-01 -3.377494034699E-01
C6  2.203762933975E-01  1.555236189607E-01 -1.622505965301E-01
C7  2.203762933975E-01  3.444763810393E-01  3.377494034699E-01
C8 -2.203762933975E-01 -1.555236189607E-01  1.622505965301E-01
H9 -1.826614495628E-01 -1.799875770221E-01 -3.676224444215E-01
H10  1.826614495628E-01  3.200124229779E-01 -1.323775555785E-01
H11  1.826614495628E-01  1.799875770221E-01  3.676224444215E-01
H12 -1.826614495628E-01 -3.200124229779E-01  1.323775555785E-01
C13 -1.349013920391E-01 -4.733083344417E-01 -2.229323652899E-01
C14  1.349013920391E-01  2.669166555835E-02 -2.770676347101E-01
C15  1.349013920391E-01  4.733083344417E-01  2.229323652899E-01
C16 -1.349013920391E-01 -2.669166555835E-02  2.770676347101E-01
H17 -2.694174063811E-02 -4.124558051643E-01 -1.597616934453E-01
H18  2.694174063811E-02  8.754419483570E-02 -3.402383065547E-01
H19  2.694174063811E-02  4.124558051643E-01  1.597616934453E-01
H20 -2.694174063811E-02 -8.754419483570E-02  3.402383065547E-01
C21 -1.846768728959E-01  3.141862455359E-01 -1.843476413680E-01
C22  1.846768728959E-01 -1.858137544641E-01 -3.156523586320E-01
C23  1.846768728959E-01 -3.141862455359E-01  1.843476413680E-01
C24 -1.846768728959E-01  1.858137544641E-01  3.156523586320E-01
H25 -1.152715216985E-01  2.121391012471E-01 -9.111350668196E-02
H26  1.152715216985E-01 -2.878608987529E-01 -4.088864933180E-01
H27  1.152715216985E-01 -2.121391012471E-01  9.111350668196E-02
H28 -1.152715216985E-01  2.878608987529E-01  4.088864933180E-01
C29 -3.180491147923E-01  2.359578223447E-01 -2.628627176196E-01
C30  3.180491147923E-01 -2.640421776553E-01 -2.371372823804E-01
C31  3.180491147923E-01 -2.359578223447E-01  2.628627176196E-01
C32 -3.180491147923E-01  2.640421776553E-01  2.371372823804E-01
H33 -3.563047798472E-01  7.163255288044E-02 -2.340045055076E-01
H34  3.563047798472E-01 -4.283674471196E-01 -2.659954944924E-01
H35  3.563047798472E-01 -7.163255288044E-02  2.340045055076E-01
H36 -3.563047798472E-01  4.283674471196E-01  2.659954944924E-01
C37 -4.107548684684E-01  3.655967877579E-01 -3.829919926002E-01
C38  4.107548684684E-01 -1.344032122421E-01 -1.170080073998E-01
C39  4.107548684684E-01 -3.655967877579E-01  3.829919926002E-01
C40 -4.107548684684E-01  1.344032122421E-01  1.170080073998E-01
C41 -4.517459765377E-01 -2.892159972569E-01  4.632726347213E-01
C42  4.517459765377E-01  2.107840027431E-01  3.672736527872E-02
C43  4.517459765377E-01  2.892159972569E-01 -4.632726347213E-01
C44 -4.517459765377E-01 -2.107840027431E-01 -3.672736527872E-02
H45 -4.135516135721E-01 -1.245847199606E-01  4.336298938602E-01
H46  4.135516135721E-01  3.754152800394E-01  6.637010613982E-02
H47  4.135516135721E-01  1.245847199606E-01 -4.336298938602E-01
H48 -4.135516135721E-01 -3.754152800394E-01 -6.637010613982E-02


#===END

data_OPT_STEP_40

_symmetry_space_group_name_H-M 'P 1'
_cell_length_a      9.35406276
_cell_length_b      6.12485246
_cell_length_c      8.47082142
_cell_angle_alpha   90.000000
_cell_angle_beta  101.087062
_cell_angle_gamma   90.000000

loop_
_atom_site_label
_atom_site_fract_x
_atom_site_fract_y
_atom_site_fract_z
C1 -3.613669490810E-01 -4.189746886065E-01 -4.204518612392E-01
C2  3.613669490810E-01  8.102531139353E-02 -7.954813876079E-02
C3  3.613669490810E-01  4.189746886065E-01  4.204518612392E-01
C4 -3.613669490810E-01 -8.102531139353E-02  7.954813876079E-02
C5 -2.203787258604E-01 -3.444790031285E-01 -3.377489812310E-01
C6  2.203787258604E-01  1.555209968715E-01 -1.622510187690E-01
C7  2.203787258604E-01  3.444790031285E-01  3.377489812310E-01
C8 -2.203787258604E-01 -1.555209968715E-01  1.622510187690E-01
H9 -1.826606186026E-01 -1.799888624695E-01 -3.676225928361E-01
H10  1.826606186026E-01  3.200111375305E-01 -1.323774071639E-01
H11  1.826606186026E-01  1.799888624695E-01  3.676225928361E-01
H12 -1.826606186026E-01 -3.200111375305E-01  1.323774071639E-01
C13 -1.349063406663E-01 -4.733151747596E-01 -2.229348779603E-01
C14  1.349063406663E-01  2.668482524035E-02 -2.770651220397E-01
C15  1.349063406663E-01  4.733151747596E-01  2.229348779603E-01
C16 -1.349063406663E-01 -2.668482524035E-02  2.770651220397E-01
H17 -2.694693595016E-02 -4.124630804216E-01 -1.597661806133E-01
H18  2.694693595016E-02  8.753691957843E-02 -3.402338193867E-01
H19  2.694693595016E-02  4.124630804216E-01  1.597661806133E-01
H20 -2.694693595016E-02 -8.753691957843E-02  3.402338193867E-01
C21 -1.846832372705E-01  3.141760117991E-01 -1.843505291567E-01
C22  1.846832372705E-01 -1.858239882009E-01 -3.156494708433E-01
C23  1.846832372705E-01 -3.141760117991E-01  1.843505291567E-01
C24 -1.846832372705E-01  1.858239882009E-01  3.156494708433E-01
H25 -1.152836809887E-01  2.121279755452E-01 -9.111272551125E-02
H26  1.152836809887E-01 -2.878720244548E-01 -4.088872744887E-01
H27  1.152836809887E-01 -2.121279755452E-01  9.111272551125E-02
H28 -1.152836809887E-01  2.878720244548E-01  4.088872744887E-01
C29 -3.180557662785E-01  2.359496737937E-01 -2.628637537127E-01
C30  3.180557662785E-01 -2.640503262063E-01 -2.371362462873E-01
C31  3.180557662785E-01 -2.359496737937E-01  2.628637537127E-01
C32 -3.180557662785E-01  2.640503262063E-01  2.371362462873E-01
H33 -3.563147598136E-01  7.162387516015E-02 -2.340027593729E-01
H34  3.563147598136E-01 -4.283761248398E-01 -2.659972406271E-01
H35  3.563147598136E-01 -7.162387516015E-02  2.340027593729E-01
H36 -3.563147598136E-01  4.283761248398E-01  2.659972406271E-01
C37 -4.107576551568E-01  3.655923379433E-01 -3.829930982567E-01
C38  4.107576551568E-01 -1.344076620567E-01 -1.170069017433E-01
C39  4.107576551568E-01 -3.655923379433E-01  3.829930982567E-01
C40 -4.107576551568E-01  1.344076620567E-01  1.170069017433E-01
C41 -4.517438963900E-01 -2.892123706401E-01  4.632719119556E-01
C42  4.517438963900E-01  2.107876293599E-01  3.672808804444E-02
C43  4.517438963900E-01  2.892123706401E-01 -4.632719119556E-01
C44 -4.517438963900E-01 -2.107876293599E-01 -3.672808804444E-02
H45 -4.135508175431E-01 -1.245763021699E-01  4.336291290024E-01
H46  4.135508175431E-01  3.754236978301E-01  6.637087099761E-02
H47  4.135508175431E-01  1.245763021699E-01 -4.336291290024E-01
H48 -4.135508175431E-01 -3.754236978301E-01 -6.637087099761E-02


#===END

data_OPT_STEP_41

_symmetry_space_group_name_H-M 'P 1'
_cell_length_a      9.35587457
_cell_length_b      6.12371848
_cell_length_c      8.47131436
_cell_angle_alpha   90.000000
_cell_angle_beta  101.104302
_cell_angle_gamma   90.000000

loop_
_atom_site_label
_atom_site_fract_x
_atom_site_fract_y
_atom_site_fract_z
C1 -3.613697498076E-01 -4.189430857613E-01 -4.204712156319E-01
C2  3.613697498076E-01  8.105691423866E-02 -7.952878436806E-02
C3  3.613697498076E-01  4.189430857613E-01  4.204712156319E-01
C4 -3.613697498076E-01 -8.105691423866E-02  7.952878436806E-02
C5 -2.203832824580E-01 -3.444177131510E-01 -3.377886027402E-01
C6  2.203832824580E-01  1.555822868490E-01 -1.622113972598E-01
C7  2.203832824580E-01  3.444177131510E-01  3.377886027402E-01
C8 -2.203832824580E-01 -1.555822868490E-01  1.622113972598E-01
H9 -1.826782154029E-01 -1.799139898567E-01 -3.676945880674E-01
H10  1.826782154029E-01  3.200860101433E-01 -1.323054119326E-01
H11  1.826782154029E-01  1.799139898567E-01  3.676945880674E-01
H12 -1.826782154029E-01 -3.200860101433E-01  1.323054119326E-01
C13 -1.348940458292E-01 -4.732484461406E-01 -2.229556730411E-01
C14  1.348940458292E-01  2.675155385942E-02 -2.770443269589E-01
C15  1.348940458292E-01  4.732484461406E-01  2.229556730411E-01
C16 -1.348940458292E-01 -2.675155385942E-02  2.770443269589E-01
H17 -2.693909413476E-02 -4.123693345575E-01 -1.597951404995E-01
H18  2.693909413476E-02  8.763066544254E-02 -3.402048595005E-01
H19  2.693909413476E-02  4.123693345575E-01  1.597951404995E-01
H20 -2.693909413476E-02 -8.763066544254E-02  3.402048595005E-01
C21 -1.846474285409E-01  3.142173565418E-01 -1.843358227099E-01
C22  1.846474285409E-01 -1.857826434582E-01 -3.156641772901E-01
C23  1.846474285409E-01 -3.142173565418E-01  1.843358227099E-01
C24 -1.846474285409E-01  1.857826434582E-01  3.156641772901E-01
H25 -1.152284995343E-01  2.121757011978E-01 -9.108699207167E-02
H26  1.152284995343E-01 -2.878242988022E-01 -4.089130079283E-01
H27  1.152284995343E-01 -2.121757011978E-01  9.108699207167E-02
H28 -1.152284995343E-01  2.878242988022E-01  4.089130079283E-01
C29 -3.180192570818E-01  2.359621109896E-01 -2.628273345121E-01
C30  3.180192570818E-01 -2.640378890104E-01 -2.371726654879E-01
C31  3.180192570818E-01 -2.359621109896E-01  2.628273345121E-01
C32 -3.180192570818E-01  2.640378890104E-01  2.371726654879E-01
H33 -3.562628338039E-01  7.161878698100E-02 -2.339379268582E-01
H34  3.562628338039E-01 -4.283812130190E-01 -2.660620731418E-01
H35  3.562628338039E-01 -7.161878698100E-02  2.339379268582E-01
H36 -3.562628338039E-01  4.283812130190E-01  2.660620731418E-01
C37 -4.107401146881E-01  3.655997525110E-01 -3.829731253982E-01
C38  4.107401146881E-01 -1.344002474890E-01 -1.170268746018E-01
C39  4.107401146881E-01 -3.655997525110E-01  3.829731253982E-01
C40 -4.107401146881E-01  1.344002474890E-01  1.170268746018E-01
C41 -4.517633055743E-01 -2.891902563386E-01  4.632309206092E-01
C42  4.517633055743E-01  2.108097436614E-01  3.676907939081E-02
C43  4.517633055743E-01  2.891902563386E-01 -4.632309206092E-01
C44 -4.517633055743E-01 -2.108097436614E-01 -3.676907939081E-02
H45 -4.135854421055E-01 -1.245395789488E-01  4.335544970617E-01
H46  4.135854421056E-01  3.754604210512E-01  6.644550293827E-02
H47  4.135854421055E-01  1.245395789488E-01 -4.335544970617E-01
H48 -4.135854421055E-01 -3.754604210512E-01 -6.644550293827E-02


#===END

data_OPT_STEP_42

_symmetry_space_group_name_H-M 'P 1'
_cell_length_a      9.35635239
_cell_length_b      6.12354945
_cell_length_c      8.47128134
_cell_angle_alpha   90.000000
_cell_angle_beta  101.106717
_cell_angle_gamma   90.000000

loop_
_atom_site_label
_atom_site_fract_x
_atom_site_fract_y
_atom_site_fract_z
C1 -3.613705841475E-01 -4.189344550471E-01 -4.204807523511E-01
C2  3.613705841475E-01  8.106554495287E-02 -7.951924764894E-02
C3  3.613705841475E-01  4.189344550471E-01  4.204807523511E-01
C4 -3.613705841475E-01 -8.106554495287E-02  7.951924764894E-02
C5 -2.203849215924E-01 -3.444028304009E-01 -3.378085315888E-01
C6  2.203849215924E-01  1.555971695991E-01 -1.621914684112E-01
C7  2.203849215924E-01  3.444028304009E-01  3.378085315888E-01
C8 -2.203849215924E-01 -1.555971695991E-01  1.621914684112E-01
H9 -1.826845542157E-01 -1.798980700100E-01 -3.677267869780E-01
H10  1.826845542157E-01  3.201019299900E-01 -1.322732130220E-01
H11  1.826845542157E-01  1.798980700100E-01  3.677267869780E-01
H12 -1.826845542157E-01 -3.201019299900E-01  1.322732130220E-01
C13 -1.348912082704E-01 -4.732280157590E-01 -2.229701881109E-01
C14  1.348912082704E-01  2.677198424100E-02 -2.770298118891E-01
C15  1.348912082704E-01  4.732280157590E-01  2.229701881109E-01
C16 -1.348912082704E-01 -2.677198424100E-02  2.770298118891E-01
H17 -2.693833524899E-02 -4.123417208229E-01 -1.598176970492E-01
H18  2.693833524899E-02  8.765827917711E-02 -3.401823029508E-01
H19  2.693833524899E-02  4.123417208229E-01  1.598176970492E-01
H20 -2.693833524899E-02 -8.765827917711E-02  3.401823029508E-01
C21 -1.846381514706E-01  3.142369120990E-01 -1.843358236447E-01
C22  1.846381514706E-01 -1.857630879010E-01 -3.156641763553E-01
C23  1.846381514706E-01 -3.142369120990E-01  1.843358236447E-01
C24 -1.846381514706E-01  1.857630879010E-01  3.156641763553E-01
H25 -1.152170336158E-01  2.121975433457E-01 -9.108413679000E-02
H26  1.152170336158E-01 -2.878024566543E-01 -4.089158632100E-01
H27  1.152170336158E-01 -2.121975433457E-01  9.108413679000E-02
H28 -1.152170336158E-01  2.878024566543E-01  4.089158632100E-01
C29 -3.180085200191E-01  2.359750365101E-01 -2.628180965331E-01
C30  3.180085200191E-01 -2.640249634899E-01 -2.371819034669E-01
C31  3.180085200191E-01 -2.359750365101E-01  2.628180965331E-01
C32 -3.180085200191E-01  2.640249634899E-01  2.371819034669E-01
H33 -3.562477679229E-01  7.162980720407E-02 -2.339201781112E-01
H34  3.562477679229E-01 -4.283701927959E-01 -2.660798218888E-01
H35  3.562477679229E-01 -7.162980720407E-02  2.339201781112E-01
H36 -3.562477679229E-01  4.283701927959E-01  2.660798218888E-01
C37 -4.107344532959E-01  3.656071722794E-01 -3.829680015431E-01
C38  4.107344532959E-01 -1.343928277206E-01 -1.170319984569E-01
C39  4.107344532959E-01 -3.656071722794E-01  3.829680015431E-01
C40 -4.107344532959E-01  1.343928277206E-01  1.170319984569E-01
C41 -4.517701016548E-01 -2.891884075057E-01  4.632169615535E-01
C42  4.517701016548E-01  2.108115924943E-01  3.678303844646E-02
C43  4.517701016548E-01  2.891884075057E-01 -4.632169615535E-01
C44 -4.517701016548E-01 -2.108115924943E-01 -3.678303844646E-02
H45 -4.135991089328E-01 -1.245351304294E-01  4.335294529659E-01
H46  4.135991089328E-01  3.754648695706E-01  6.647054703410E-02
H47  4.135991089328E-01  1.245351304294E-01 -4.335294529659E-01
H48 -4.135991089328E-01 -3.754648695706E-01 -6.647054703410E-02


#===END

data_OPT_STEP_43

_symmetry_space_group_name_H-M 'P 1'
_cell_length_a      9.35647973
_cell_length_b      6.12356145
_cell_length_c      8.47116105
_cell_angle_alpha   90.000000
_cell_angle_beta  101.107017
_cell_angle_gamma   90.000000

loop_
_atom_site_label
_atom_site_fract_x
_atom_site_fract_y
_atom_site_fract_z
C1 -3.613711653349E-01 -4.189365096493E-01 -4.204806980012E-01
C2  3.613711653349E-01  8.106349035070E-02 -7.951930199882E-02
C3  3.613711653349E-01  4.189365096493E-01  4.204806980012E-01
C4 -3.613711653349E-01 -8.106349035070E-02  7.951930199882E-02
C5 -2.203858468965E-01 -3.444077211580E-01 -3.378087685186E-01
C6  2.203858468965E-01  1.555922788420E-01 -1.621912314814E-01
C7  2.203858468965E-01  3.444077211580E-01  3.378087685186E-01
C8 -2.203858468965E-01 -1.555922788420E-01  1.621912314814E-01
H9 -1.826857078973E-01 -1.799029276571E-01 -3.677270724275E-01
H10  1.826857078973E-01  3.200970723429E-01 -1.322729275725E-01
H11  1.826857078973E-01  1.799029276571E-01  3.677270724275E-01
H12 -1.826857078973E-01 -3.200970723429E-01  1.322729275725E-01
C13 -1.348919040132E-01 -4.732354495255E-01 -2.229706172942E-01
C14  1.348919040132E-01  2.676455047454E-02 -2.770293827058E-01
C15  1.348919040132E-01  4.732354495255E-01  2.229706172942E-01
C16 -1.348919040132E-01 -2.676455047454E-02  2.770293827058E-01
H17 -2.693894535500E-02 -4.123513500166E-01 -1.598196069175E-01
H18  2.693894535500E-02  8.764864998344E-02 -3.401803930825E-01
H19  2.693894535500E-02  4.123513500166E-01  1.598196069175E-01
H20 -2.693894535500E-02 -8.764864998344E-02  3.401803930825E-01
C21 -1.846386779952E-01  3.142299347092E-01 -1.843363281850E-01
C22  1.846386779952E-01 -1.857700652908E-01 -3.156636718150E-01
C23  1.846386779952E-01 -3.142299347092E-01  1.843363281850E-01
C24 -1.846386779952E-01  1.857700652908E-01  3.156636718150E-01
H25 -1.152183363044E-01  2.121877554546E-01 -9.108481450250E-02
H26  1.152183363044E-01 -2.878122445454E-01 -4.089151854975E-01
H27  1.152183363044E-01 -2.121877554546E-01  9.108481450250E-02
H28 -1.152183363044E-01  2.878122445454E-01  4.089151854975E-01
C29 -3.180086701621E-01  2.359708462134E-01 -2.628190351572E-01
C30  3.180086701621E-01 -2.640291537866E-01 -2.371809648428E-01
C31  3.180086701621E-01 -2.359708462134E-01  2.628190351572E-01
C32 -3.180086701621E-01  2.640291537866E-01  2.371809648428E-01
H33 -3.562478370058E-01  7.162554765215E-02 -2.339221289120E-01
H34  3.562478370058E-01 -4.283744523479E-01 -2.660778710880E-01
H35  3.562478370058E-01 -7.162554765215E-02  2.339221289120E-01
H36 -3.562478370058E-01  4.283744523479E-01  2.660778710880E-01
C37 -4.107344961002E-01  3.656054839971E-01 -3.829684102236E-01
C38  4.107344961002E-01 -1.343945160029E-01 -1.170315897764E-01
C39  4.107344961002E-01 -3.656054839971E-01  3.829684102236E-01
C40 -4.107344961002E-01  1.343945160029E-01  1.170315897764E-01
C41 -4.517708813538E-01 -2.891882389850E-01  4.632178942954E-01
C42  4.517708813538E-01  2.108117610150E-01  3.678210570457E-02
C43  4.517708813538E-01  2.891882389850E-01 -4.632178942954E-01
C44 -4.517708813538E-01 -2.108117610150E-01 -3.678210570457E-02
H45 -4.136008505644E-01 -1.245343726044E-01  4.335308903909E-01
H46  4.136008505644E-01  3.754656273956E-01  6.646910960905E-02
H47  4.136008505644E-01  1.245343726044E-01 -4.335308903909E-01
H48 -4.136008505644E-01 -3.754656273956E-01 -6.646910960905E-02


#===END

data_OPT_STEP_44

_symmetry_space_group_name_H-M 'P 1'
_cell_length_a      9.35647973
_cell_length_b      6.12356145
_cell_length_c      8.47116105
_cell_angle_alpha   90.000000
_cell_angle_beta  101.107017
_cell_angle_gamma   90.000000

loop_
_atom_site_label
_atom_site_fract_x
_atom_site_fract_y
_atom_site_fract_z
C1 -3.613711653349E-01 -4.189365096493E-01 -4.204806980012E-01
C2  3.613711653349E-01  8.106349035070E-02 -7.951930199882E-02
C3  3.613711653349E-01  4.189365096493E-01  4.204806980012E-01
C4 -3.613711653349E-01 -8.106349035070E-02  7.951930199882E-02
C5 -2.203858468965E-01 -3.444077211580E-01 -3.378087685186E-01
C6  2.203858468965E-01  1.555922788420E-01 -1.621912314814E-01
C7  2.203858468965E-01  3.444077211580E-01  3.378087685186E-01
C8 -2.203858468965E-01 -1.555922788420E-01  1.621912314814E-01
H9 -1.826857078973E-01 -1.799029276571E-01 -3.677270724275E-01
H10  1.826857078973E-01  3.200970723429E-01 -1.322729275725E-01
H11  1.826857078973E-01  1.799029276571E-01  3.677270724275E-01
H12 -1.826857078973E-01 -3.200970723429E-01  1.322729275725E-01
C13 -1.348919040132E-01 -4.732354495255E-01 -2.229706172942E-01
C14  1.348919040132E-01  2.676455047454E-02 -2.770293827058E-01
C15  1.348919040132E-01  4.732354495255E-01  2.229706172942E-01
C16 -1.348919040132E-01 -2.676455047454E-02  2.770293827058E-01
H17 -2.693894535500E-02 -4.123513500166E-01 -1.598196069175E-01
H18  2.693894535500E-02  8.764864998344E-02 -3.401803930825E-01
H19  2.693894535500E-02  4.123513500166E-01  1.598196069175E-01
H20 -2.693894535500E-02 -8.764864998344E-02  3.401803930825E-01
C21 -1.846386779952E-01  3.142299347092E-01 -1.843363281850E-01
C22  1.846386779952E-01 -1.857700652908E-01 -3.156636718150E-01
C23  1.846386779952E-01 -3.142299347092E-01  1.843363281850E-01
C24 -1.846386779952E-01  1.857700652908E-01  3.156636718150E-01
H25 -1.152183363044E-01  2.121877554546E-01 -9.108481450250E-02
H26  1.152183363044E-01 -2.878122445454E-01 -4.089151854975E-01
H27  1.152183363044E-01 -2.121877554546E-01  9.108481450250E-02
H28 -1.152183363044E-01  2.878122445454E-01  4.089151854975E-01
C29 -3.180086701621E-01  2.359708462134E-01 -2.628190351572E-01
C30  3.180086701621E-01 -2.640291537866E-01 -2.371809648428E-01
C31  3.180086701621E-01 -2.359708462134E-01  2.628190351572E-01
C32 -3.180086701621E-01  2.640291537866E-01  2.371809648428E-01
H33 -3.562478370058E-01  7.162554765215E-02 -2.339221289120E-01
H34  3.562478370058E-01 -4.283744523479E-01 -2.660778710880E-01
H35  3.562478370058E-01 -7.162554765215E-02  2.339221289120E-01
H36 -3.562478370058E-01  4.283744523479E-01  2.660778710880E-01
C37 -4.107344961002E-01  3.656054839971E-01 -3.829684102236E-01
C38  4.107344961002E-01 -1.343945160029E-01 -1.170315897764E-01
C39  4.107344961002E-01 -3.656054839971E-01  3.829684102236E-01
C40 -4.107344961002E-01  1.343945160029E-01  1.170315897764E-01
C41 -4.517708813538E-01 -2.891882389850E-01  4.632178942954E-01
C42  4.517708813538E-01  2.108117610150E-01  3.678210570457E-02
C43  4.517708813538E-01  2.891882389850E-01 -4.632178942954E-01
C44 -4.517708813538E-01 -2.108117610150E-01 -3.678210570457E-02
H45 -4.136008505644E-01 -1.245343726044E-01  4.335308903909E-01
H46  4.136008505644E-01  3.754656273956E-01  6.646910960905E-02
H47  4.136008505644E-01  1.245343726044E-01 -4.335308903909E-01
H48 -4.136008505644E-01 -3.754656273956E-01 -6.646910960905E-02


#===END
