###############################################################################
#
#                    CRYSTAL17 CIF FILE
#
###############################################################################

data_OPT_STEP_1

_symmetry_space_group_name_H-M 'P 1'
_cell_length_a     17.97300000
_cell_length_b      7.35200000
_cell_length_c      6.24500000
_cell_angle_alpha   90.000000
_cell_angle_beta   90.646004
_cell_angle_gamma   90.000000

loop_
_atom_site_label
_atom_site_fract_x
_atom_site_fract_y
_atom_site_fract_z
C1  1.583400000000E-01 -3.951000000000E-01  4.904000000000E-01
C2 -1.583400000000E-01  1.049000000000E-01  9.600000000000E-03
C3 -1.583400000000E-01  3.951000000000E-01 -4.904000000000E-01
C4  1.583400000000E-01 -1.049000000000E-01 -9.600000000000E-03
H5  1.707000000000E-01 -3.203000000000E-01 -3.904000000000E-01
H6 -1.707000000000E-01  1.797000000000E-01 -1.096000000000E-01
H7 -1.707000000000E-01  3.203000000000E-01  3.904000000000E-01
H8  1.707000000000E-01 -1.797000000000E-01  1.096000000000E-01
C9  8.549000000000E-02 -3.979000000000E-01  4.133000000000E-01
C10 -8.549000000000E-02  1.021000000000E-01  8.670000000000E-02
C11 -8.549000000000E-02  3.979000000000E-01 -4.133000000000E-01
C12  8.549000000000E-02 -1.021000000000E-01 -8.670000000000E-02
H13  4.860000000000E-02 -3.260000000000E-01  4.807000000000E-01
H14 -4.860000000000E-02  1.740000000000E-01  1.930000000000E-02
H15 -4.860000000000E-02  3.260000000000E-01 -4.807000000000E-01
H16  4.860000000000E-02 -1.740000000000E-01 -1.930000000000E-02
C17  6.641000000000E-02  4.950000000000E-01  2.390000000000E-01
C18 -6.641000000000E-02 -5.000000000000E-03  2.610000000000E-01
C19 -6.641000000000E-02 -4.950000000000E-01 -2.390000000000E-01
C20  6.641000000000E-02  5.000000000000E-03 -2.610000000000E-01
H21  1.650000000000E-02  4.923000000000E-01  1.874000000000E-01
H22 -1.650000000000E-02 -7.700000000000E-03  3.126000000000E-01
H23 -1.650000000000E-02 -4.923000000000E-01 -1.874000000000E-01
H24  1.650000000000E-02  7.700000000000E-03 -3.126000000000E-01
C25  1.206900000000E-01  3.916000000000E-01  1.403000000000E-01
C26 -1.206900000000E-01 -1.084000000000E-01  3.597000000000E-01
C27 -1.206900000000E-01 -3.916000000000E-01 -1.403000000000E-01
C28  1.206900000000E-01  1.084000000000E-01 -3.597000000000E-01
H29  1.081000000000E-01  3.191000000000E-01  1.930000000000E-02
H30 -1.081000000000E-01 -1.809000000000E-01  4.807000000000E-01
H31 -1.081000000000E-01 -3.191000000000E-01 -1.930000000000E-02
H32  1.081000000000E-01  1.809000000000E-01 -4.807000000000E-01
C33  1.934800000000E-01  3.936000000000E-01  2.176000000000E-01
C34 -1.934800000000E-01 -1.064000000000E-01  2.824000000000E-01
C35 -1.934800000000E-01 -3.936000000000E-01 -2.176000000000E-01
C36  1.934800000000E-01  1.064000000000E-01 -2.824000000000E-01
H37  2.301000000000E-01  3.219000000000E-01  1.488000000000E-01
H38 -2.301000000000E-01 -1.781000000000E-01  3.512000000000E-01
H39 -2.301000000000E-01 -3.219000000000E-01 -1.488000000000E-01
H40  2.301000000000E-01  1.781000000000E-01 -3.512000000000E-01
C41  2.138000000000E-01  4.993000000000E-01  3.951000000000E-01
C42 -2.138000000000E-01 -7.000000000003E-04  1.049000000000E-01
C43 -2.138000000000E-01 -4.993000000000E-01 -3.951000000000E-01
C44  2.138000000000E-01  7.000000000001E-04 -1.049000000000E-01
C45  2.916900000000E-01 -4.970000000000E-01  4.786000000000E-01
C46 -2.916900000000E-01  3.000000000000E-03  2.140000000000E-02
C47 -2.916900000000E-01  4.970000000000E-01 -4.786000000000E-01
C48  2.916900000000E-01 -3.000000000000E-03 -2.140000000000E-02
C49  3.071800000000E-01 -4.350000000000E-01 -3.077000000000E-01
C50 -3.071800000000E-01  6.500000000000E-02 -1.923000000000E-01
C51 -3.071800000000E-01  4.350000000000E-01  3.077000000000E-01
C52  3.071800000000E-01 -6.500000000000E-02  1.923000000000E-01
H53  2.669000000000E-01 -4.069000000000E-01 -2.164000000000E-01
H54 -2.669000000000E-01  9.310000000000E-02 -2.836000000000E-01
H55 -2.669000000000E-01  4.069000000000E-01  2.164000000000E-01
H56  2.669000000000E-01 -9.310000000000E-02  2.836000000000E-01
C57  3.779800000000E-01 -4.155000000000E-01 -2.323000000000E-01
C58 -3.779800000000E-01  8.450000000000E-02 -2.677000000000E-01
C59 -3.779800000000E-01  4.155000000000E-01  2.323000000000E-01
C60  3.779800000000E-01 -8.450000000000E-02  2.677000000000E-01
H61  3.861000000000E-01 -3.738000000000E-01 -9.000000000000E-02
H62 -3.861000000000E-01  1.262000000000E-01 -4.100000000000E-01
H63 -3.861000000000E-01  3.738000000000E-01  9.000000000000E-02
H64  3.861000000000E-01 -1.262000000000E-01  4.100000000000E-01
C65  4.403600000000E-01 -4.567000000000E-01 -3.638000000000E-01
C66 -4.403600000000E-01  4.330000000000E-02 -1.362000000000E-01
C67 -4.403600000000E-01  4.567000000000E-01  3.638000000000E-01
C68  4.403600000000E-01 -4.330000000000E-02  1.362000000000E-01
C69  4.260400000000E-01  4.721800000000E-01  4.253000000000E-01
C70 -4.260400000000E-01 -2.782000000000E-02  7.470000000000E-02
C71 -4.260400000000E-01 -4.721800000000E-01 -4.253000000000E-01
C72  4.260400000000E-01  2.782000000000E-02 -7.470000000000E-02
C73  3.508200000000E-01  4.538000000000E-01  3.531000000000E-01
C74 -3.508200000000E-01 -4.620000000000E-02  1.469000000000E-01
C75 -3.508200000000E-01 -4.538000000000E-01 -3.531000000000E-01
C76  3.508200000000E-01  4.620000000000E-02 -1.469000000000E-01
H77  3.413000000000E-01  4.061000000000E-01  2.141000000000E-01
H78 -3.413000000000E-01 -9.390000000000E-02  2.859000000000E-01
H79 -3.413000000000E-01 -4.061000000000E-01 -2.141000000000E-01
H80  3.413000000000E-01  9.390000000000E-02 -2.859000000000E-01
C81 -4.864000000000E-01 -4.304000000000E-01 -2.944000000000E-01
C82  4.864000000000E-01  6.960000000000E-02 -2.056000000000E-01
C83  4.864000000000E-01  4.304000000000E-01  2.944000000000E-01
C84 -4.864000000000E-01 -6.960000000000E-02  2.056000000000E-01
H85 -4.773000000000E-01 -3.830000000000E-01 -1.550000000000E-01
H86  4.773000000000E-01  1.170000000000E-01 -3.450000000000E-01
H87  4.773000000000E-01  3.830000000000E-01  1.550000000000E-01
H88 -4.773000000000E-01 -1.170000000000E-01  3.450000000000E-01


#===END

data_OPT_STEP_2

_symmetry_space_group_name_H-M 'P 1'
_cell_length_a     17.97300000
_cell_length_b      7.35200000
_cell_length_c      6.24500000
_cell_angle_alpha   90.000000
_cell_angle_beta   90.646004
_cell_angle_gamma   90.000000

loop_
_atom_site_label
_atom_site_fract_x
_atom_site_fract_y
_atom_site_fract_z
C1  1.583400000000E-01 -3.951000000000E-01  4.904000000000E-01
C2 -1.583400000000E-01  1.049000000000E-01  9.600000000000E-03
C3 -1.583400000000E-01  3.951000000000E-01 -4.904000000000E-01
C4  1.583400000000E-01 -1.049000000000E-01 -9.600000000000E-03
H5  1.707000000000E-01 -3.203000000000E-01 -3.904000000000E-01
H6 -1.707000000000E-01  1.797000000000E-01 -1.096000000000E-01
H7 -1.707000000000E-01  3.203000000000E-01  3.904000000000E-01
H8  1.707000000000E-01 -1.797000000000E-01  1.096000000000E-01
C9  8.549000000000E-02 -3.979000000000E-01  4.133000000000E-01
C10 -8.549000000000E-02  1.021000000000E-01  8.670000000000E-02
C11 -8.549000000000E-02  3.979000000000E-01 -4.133000000000E-01
C12  8.549000000000E-02 -1.021000000000E-01 -8.670000000000E-02
H13  4.860000000000E-02 -3.260000000000E-01  4.807000000000E-01
H14 -4.860000000000E-02  1.740000000000E-01  1.930000000000E-02
H15 -4.860000000000E-02  3.260000000000E-01 -4.807000000000E-01
H16  4.860000000000E-02 -1.740000000000E-01 -1.930000000000E-02
C17  6.641000000000E-02  4.950000000000E-01  2.390000000000E-01
C18 -6.641000000000E-02 -5.000000000000E-03  2.610000000000E-01
C19 -6.641000000000E-02 -4.950000000000E-01 -2.390000000000E-01
C20  6.641000000000E-02  5.000000000000E-03 -2.610000000000E-01
H21  1.650000000000E-02  4.923000000000E-01  1.874000000000E-01
H22 -1.650000000000E-02 -7.700000000000E-03  3.126000000000E-01
H23 -1.650000000000E-02 -4.923000000000E-01 -1.874000000000E-01
H24  1.650000000000E-02  7.700000000000E-03 -3.126000000000E-01
C25  1.206900000000E-01  3.916000000000E-01  1.403000000000E-01
C26 -1.206900000000E-01 -1.084000000000E-01  3.597000000000E-01
C27 -1.206900000000E-01 -3.916000000000E-01 -1.403000000000E-01
C28  1.206900000000E-01  1.084000000000E-01 -3.597000000000E-01
H29  1.081000000000E-01  3.191000000000E-01  1.930000000000E-02
H30 -1.081000000000E-01 -1.809000000000E-01  4.807000000000E-01
H31 -1.081000000000E-01 -3.191000000000E-01 -1.930000000000E-02
H32  1.081000000000E-01  1.809000000000E-01 -4.807000000000E-01
C33  1.934800000000E-01  3.936000000000E-01  2.176000000000E-01
C34 -1.934800000000E-01 -1.064000000000E-01  2.824000000000E-01
C35 -1.934800000000E-01 -3.936000000000E-01 -2.176000000000E-01
C36  1.934800000000E-01  1.064000000000E-01 -2.824000000000E-01
H37  2.301000000000E-01  3.219000000000E-01  1.488000000000E-01
H38 -2.301000000000E-01 -1.781000000000E-01  3.512000000000E-01
H39 -2.301000000000E-01 -3.219000000000E-01 -1.488000000000E-01
H40  2.301000000000E-01  1.781000000000E-01 -3.512000000000E-01
C41  2.138000000000E-01  4.993000000000E-01  3.951000000000E-01
C42 -2.138000000000E-01 -7.000000000003E-04  1.049000000000E-01
C43 -2.138000000000E-01 -4.993000000000E-01 -3.951000000000E-01
C44  2.138000000000E-01  7.000000000001E-04 -1.049000000000E-01
C45  2.916900000000E-01 -4.970000000000E-01  4.786000000000E-01
C46 -2.916900000000E-01  3.000000000000E-03  2.140000000000E-02
C47 -2.916900000000E-01  4.970000000000E-01 -4.786000000000E-01
C48  2.916900000000E-01 -3.000000000000E-03 -2.140000000000E-02
C49  3.071800000000E-01 -4.350000000000E-01 -3.077000000000E-01
C50 -3.071800000000E-01  6.500000000000E-02 -1.923000000000E-01
C51 -3.071800000000E-01  4.350000000000E-01  3.077000000000E-01
C52  3.071800000000E-01 -6.500000000000E-02  1.923000000000E-01
H53  2.669000000000E-01 -4.069000000000E-01 -2.164000000000E-01
H54 -2.669000000000E-01  9.310000000000E-02 -2.836000000000E-01
H55 -2.669000000000E-01  4.069000000000E-01  2.164000000000E-01
H56  2.669000000000E-01 -9.310000000000E-02  2.836000000000E-01
C57  3.779800000000E-01 -4.155000000000E-01 -2.323000000000E-01
C58 -3.779800000000E-01  8.450000000000E-02 -2.677000000000E-01
C59 -3.779800000000E-01  4.155000000000E-01  2.323000000000E-01
C60  3.779800000000E-01 -8.450000000000E-02  2.677000000000E-01
H61  3.861000000000E-01 -3.738000000000E-01 -9.000000000000E-02
H62 -3.861000000000E-01  1.262000000000E-01 -4.100000000000E-01
H63 -3.861000000000E-01  3.738000000000E-01  9.000000000000E-02
H64  3.861000000000E-01 -1.262000000000E-01  4.100000000000E-01
C65  4.403600000000E-01 -4.567000000000E-01 -3.638000000000E-01
C66 -4.403600000000E-01  4.330000000000E-02 -1.362000000000E-01
C67 -4.403600000000E-01  4.567000000000E-01  3.638000000000E-01
C68  4.403600000000E-01 -4.330000000000E-02  1.362000000000E-01
C69  4.260400000000E-01  4.721800000000E-01  4.253000000000E-01
C70 -4.260400000000E-01 -2.782000000000E-02  7.470000000000E-02
C71 -4.260400000000E-01 -4.721800000000E-01 -4.253000000000E-01
C72  4.260400000000E-01  2.782000000000E-02 -7.470000000000E-02
C73  3.508200000000E-01  4.538000000000E-01  3.531000000000E-01
C74 -3.508200000000E-01 -4.620000000000E-02  1.469000000000E-01
C75 -3.508200000000E-01 -4.538000000000E-01 -3.531000000000E-01
C76  3.508200000000E-01  4.620000000000E-02 -1.469000000000E-01
H77  3.413000000000E-01  4.061000000000E-01  2.141000000000E-01
H78 -3.413000000000E-01 -9.390000000000E-02  2.859000000000E-01
H79 -3.413000000000E-01 -4.061000000000E-01 -2.141000000000E-01
H80  3.413000000000E-01  9.390000000000E-02 -2.859000000000E-01
C81 -4.864000000000E-01 -4.304000000000E-01 -2.944000000000E-01
C82  4.864000000000E-01  6.960000000000E-02 -2.056000000000E-01
C83  4.864000000000E-01  4.304000000000E-01  2.944000000000E-01
C84 -4.864000000000E-01 -6.960000000000E-02  2.056000000000E-01
H85 -4.773000000000E-01 -3.830000000000E-01 -1.550000000000E-01
H86  4.773000000000E-01  1.170000000000E-01 -3.450000000000E-01
H87  4.773000000000E-01  3.830000000000E-01  1.550000000000E-01
H88 -4.773000000000E-01 -1.170000000000E-01  3.450000000000E-01


#===END

data_OPT_STEP_3

_symmetry_space_group_name_H-M 'P 1'
_cell_length_a     18.03448916
_cell_length_b      7.36235696
_cell_length_c      6.27594716
_cell_angle_alpha   90.000000
_cell_angle_beta   90.548150
_cell_angle_gamma   90.000000

loop_
_atom_site_label
_atom_site_fract_x
_atom_site_fract_y
_atom_site_fract_z
C1  1.587440004752E-01 -3.958239292844E-01  4.911643477161E-01
C2 -1.587440004752E-01  1.041760707156E-01  8.835652283921E-03
C3 -1.587440004752E-01  3.958239292844E-01 -4.911643477161E-01
C4  1.587440004752E-01 -1.041760707156E-01 -8.835652283921E-03
H5  1.713190111889E-01 -3.176592570587E-01 -3.887349240571E-01
H6 -1.713190111889E-01  1.823407429413E-01 -1.112650759429E-01
H7 -1.713190111889E-01  3.176592570587E-01  3.887349240571E-01
H8  1.713190111889E-01 -1.823407429413E-01  1.112650759429E-01
C9  8.597636598730E-02 -3.989485480067E-01  4.141962742819E-01
C10 -8.597636598730E-02  1.010514519933E-01  8.580372571813E-02
C11 -8.597636598730E-02  3.989485480067E-01 -4.141962742819E-01
C12  8.597636598730E-02 -1.010514519933E-01 -8.580372571813E-02
H13  4.830992250451E-02 -3.250218122030E-01  4.825846156884E-01
H14 -4.830992250451E-02  1.749781877970E-01  1.741538431155E-02
H15 -4.830992250451E-02  3.250218122030E-01 -4.825846156884E-01
H16  4.830992250451E-02 -1.749781877970E-01 -1.741538431155E-02
C17  6.711674778423E-02  4.941450310049E-01  2.394474959054E-01
C18 -6.711674778423E-02 -5.854968995105E-03  2.605525040946E-01
C19 -6.711674778423E-02 -4.941450310049E-01 -2.394474959054E-01
C20  6.711674778423E-02  5.854968995105E-03 -2.605525040946E-01
H21  1.620730918991E-02  4.916036184069E-01  1.865358789107E-01
H22 -1.620730918991E-02 -8.396381593074E-03  3.134641210893E-01
H23 -1.620730918991E-02 -4.916036184069E-01 -1.865358789107E-01
H24  1.620730918991E-02  8.396381593074E-03 -3.134641210893E-01
C25  1.215654002400E-01  3.907401842686E-01  1.407399520110E-01
C26 -1.215654002400E-01 -1.092598157314E-01  3.592600479890E-01
C27 -1.215654002400E-01 -3.907401842686E-01 -1.407399520110E-01
C28  1.215654002400E-01  1.092598157314E-01 -3.592600479890E-01
H29  1.088608488676E-01  3.160580247216E-01  1.769595306170E-02
H30 -1.088608488676E-01 -1.839419752784E-01  4.823040469383E-01
H31 -1.088608488676E-01 -3.160580247216E-01 -1.769595306170E-02
H32  1.088608488676E-01  1.839419752784E-01 -4.823040469383E-01
C33  1.941651158161E-01  3.920389156732E-01  2.189072796177E-01
C34 -1.941651158161E-01 -1.079610843268E-01  2.810927203823E-01
C35 -1.941651158161E-01 -3.920389156732E-01 -2.189072796177E-01
C36  1.941651158161E-01  1.079610843268E-01 -2.810927203823E-01
H37  2.312886455146E-01  3.160433422226E-01  1.511259073934E-01
H38 -2.312886455146E-01 -1.839566577774E-01  3.488740926066E-01
H39 -2.312886455146E-01 -3.160433422226E-01 -1.511259073934E-01
H40  2.312886455146E-01  1.839566577774E-01 -3.488740926066E-01
C41  2.142637227118E-01  4.986651343388E-01  3.957039899844E-01
C42 -2.142637227118E-01 -1.334865661248E-03  1.042960100156E-01
C43 -2.142637227118E-01 -4.986651343388E-01 -3.957039899844E-01
C44  2.142637227118E-01  1.334865661248E-03 -1.042960100156E-01
C45  2.920078611511E-01 -4.968143357558E-01  4.786666422396E-01
C46 -2.920078611511E-01  3.185664244188E-03  2.133335776038E-02
C47 -2.920078611511E-01  4.968143357558E-01 -4.786666422396E-01
C48  2.920078611511E-01 -3.185664244188E-03 -2.133335776038E-02
C49  3.072635418815E-01 -4.337790070242E-01 -3.084428236355E-01
C50 -3.072635418815E-01  6.622099297576E-02 -1.915571763645E-01
C51 -3.072635418815E-01  4.337790070242E-01  3.084428236355E-01
C52  3.072635418815E-01 -6.622099297576E-02  1.915571763645E-01
H53  2.660950289934E-01 -4.058529283480E-01 -2.148830519807E-01
H54 -2.660950289934E-01  9.414707165201E-02 -2.851169480193E-01
H55 -2.660950289934E-01  4.058529283480E-01  2.148830519807E-01
H56  2.660950289934E-01 -9.414707165201E-02  2.851169480193E-01
C57  3.780346229852E-01 -4.141136974957E-01 -2.333070139931E-01
C58 -3.780346229852E-01  8.588630250428E-02 -2.666929860069E-01
C59 -3.780346229852E-01  4.141136974957E-01  2.333070139931E-01
C60  3.780346229852E-01 -8.588630250428E-02  2.666929860069E-01
H61  3.863020368660E-01 -3.723210702960E-01 -8.786685030698E-02
H62 -3.863020368660E-01  1.276789297040E-01 -4.121331496930E-01
H63 -3.863020368660E-01  3.723210702960E-01  8.786685030698E-02
H64  3.863020368660E-01 -1.276789297040E-01  4.121331496930E-01
C65  4.403726766808E-01 -4.556510455013E-01 -3.645383736737E-01
C66 -4.403726766808E-01  4.434895449874E-02 -1.354616263263E-01
C67 -4.403726766808E-01  4.556510455013E-01  3.645383736737E-01
C68  4.403726766808E-01 -4.434895449874E-02  1.354616263263E-01
C69  4.261773579628E-01  4.721180293682E-01  4.255989070049E-01
C70 -4.261773579628E-01 -2.788197063182E-02  7.440109299506E-02
C71 -4.261773579628E-01 -4.721180293682E-01 -4.255989070049E-01
C72  4.261773579628E-01  2.788197063182E-02 -7.440109299506E-02
C73  3.511067570150E-01  4.528763424230E-01  3.537410844110E-01
C74 -3.511067570150E-01 -4.712365757698E-02  1.462589155890E-01
C75 -3.511067570150E-01 -4.528763424230E-01 -3.537410844110E-01
C76  3.511067570150E-01  4.712365757698E-02 -1.462589155890E-01
H77  3.416621014577E-01  4.054114767510E-01  2.112517886976E-01
H78 -3.416621014577E-01 -9.458852324899E-02  2.887482113024E-01
H79 -3.416621014577E-01 -4.054114767510E-01 -2.112517886976E-01
H80  3.416621014577E-01  9.458852324899E-02 -2.887482113024E-01
C81 -4.864921893007E-01 -4.286908918302E-01 -2.953933966331E-01
C82  4.864921893007E-01  7.130910816981E-02 -2.046066033669E-01
C83  4.864921893007E-01  4.286908918302E-01  2.953933966331E-01
C84 -4.864921893007E-01 -7.130910816981E-02  2.046066033669E-01
H85 -4.772670513867E-01 -3.788615892973E-01 -1.538362672911E-01
H86  4.772670513867E-01  1.211384107027E-01 -3.461637327089E-01
H87  4.772670513867E-01  3.788615892973E-01  1.538362672911E-01
H88 -4.772670513867E-01 -1.211384107027E-01  3.461637327089E-01


#===END

data_OPT_STEP_4

_symmetry_space_group_name_H-M 'P 1'
_cell_length_a     18.09494377
_cell_length_b      7.41395688
_cell_length_c      6.30153156
_cell_angle_alpha   90.000000
_cell_angle_beta   90.514132
_cell_angle_gamma   90.000000

loop_
_atom_site_label
_atom_site_fract_x
_atom_site_fract_y
_atom_site_fract_z
C1  1.594457275353E-01 -3.914480409426E-01  4.881033379710E-01
C2 -1.594457275353E-01  1.085519590574E-01  1.189666202900E-02
C3 -1.594457275353E-01  3.914480409426E-01 -4.881033379710E-01
C4  1.594457275353E-01 -1.085519590574E-01 -1.189666202900E-02
H5  1.727714753176E-01 -3.040349259563E-01 -3.962646573125E-01
H6 -1.727714753176E-01  1.959650740437E-01 -1.037353426875E-01
H7 -1.727714753176E-01  3.040349259563E-01  3.962646573125E-01
H8  1.727714753176E-01 -1.959650740437E-01  1.037353426875E-01
C9  8.652232048184E-02 -3.969684636925E-01  4.131924091995E-01
C10 -8.652232048184E-02  1.030315363075E-01  8.680759080047E-02
C11 -8.652232048184E-02  3.969684636925E-01 -4.131924091995E-01
C12  8.652232048184E-02 -1.030315363075E-01 -8.680759080047E-02
H13  4.799705934855E-02 -3.214078352182E-01  4.829582960758E-01
H14 -4.799705934855E-02  1.785921647818E-01  1.704170392419E-02
H15 -4.799705934855E-02  3.214078352182E-01 -4.829582960758E-01
H16  4.799705934855E-02 -1.785921647818E-01 -1.704170392419E-02
C17  6.760064218363E-02  4.952037332195E-01  2.397864305117E-01
C18 -6.760064218363E-02 -4.796266780524E-03  2.602135694883E-01
C19 -6.760064218363E-02 -4.952037332195E-01 -2.397864305117E-01
C20  6.760064218363E-02  4.796266780523E-03 -2.602135694883E-01
H21  1.559220479294E-02  4.927192297035E-01  1.850406949414E-01
H22 -1.559220479294E-02 -7.280770296486E-03  3.149593050586E-01
H23 -1.559220479294E-02 -4.927192297035E-01 -1.850406949414E-01
H24  1.559220479294E-02  7.280770296486E-03 -3.149593050586E-01
C25  1.219550209758E-01  3.909335821571E-01  1.426620275205E-01
C26 -1.219550209758E-01 -1.090664178429E-01  3.573379724795E-01
C27 -1.219550209758E-01 -3.909335821571E-01 -1.426620275205E-01
C28  1.219550209758E-01  1.090664178429E-01 -3.573379724795E-01
H29  1.088592725078E-01  3.117969508262E-01  1.941575637879E-02
H30 -1.088592725078E-01 -1.882030491738E-01  4.805842436212E-01
H31 -1.088592725078E-01 -3.117969508262E-01 -1.941575637879E-02
H32  1.088592725078E-01  1.882030491738E-01 -4.805842436212E-01
C33  1.945090205104E-01  3.931005328079E-01  2.202957920400E-01
C34 -1.945090205104E-01 -1.068994671921E-01  2.797042079600E-01
C35 -1.945090205104E-01 -3.931005328079E-01 -2.202957920400E-01
C36  1.945090205104E-01  1.068994671921E-01 -2.797042079600E-01
H37  2.306365814844E-01  2.997603350122E-01  1.656053003327E-01
H38 -2.306365814844E-01 -2.002396649878E-01  3.343946996673E-01
H39 -2.306365814844E-01 -2.997603350122E-01 -1.656053003327E-01
H40  2.306365814844E-01  2.002396649878E-01 -3.343946996673E-01
C41  2.147166316630E-01 -4.987147162046E-01  3.950024319928E-01
C42 -2.147166316630E-01  1.285283795437E-03  1.049975680072E-01
C43 -2.147166316630E-01  4.987147162046E-01 -3.950024319928E-01
C44  2.147166316630E-01 -1.285283795437E-03 -1.049975680072E-01
C45  2.922870490505E-01 -4.957086884309E-01  4.785698032772E-01
C46 -2.922870490505E-01  4.291311569107E-03  2.143019672278E-02
C47 -2.922870490505E-01  4.957086884309E-01 -4.785698032772E-01
C48  2.922870490505E-01 -4.291311569107E-03 -2.143019672278E-02
C49  3.074742205575E-01 -4.348155780486E-01 -3.081489527344E-01
C50 -3.074742205575E-01  6.518442195137E-02 -1.918510472656E-01
C51 -3.074742205575E-01  4.348155780486E-01  3.081489527344E-01
C52  3.074742205575E-01 -6.518442195137E-02  1.918510472656E-01
H53  2.654119364401E-01 -4.133802246068E-01 -2.092322504913E-01
H54 -2.654119364401E-01  8.661977539318E-02 -2.907677495087E-01
H55 -2.654119364401E-01  4.133802246068E-01  2.092322504913E-01
H56  2.654119364401E-01 -8.661977539318E-02  2.907677495087E-01
C57  3.782682452930E-01 -4.125882500701E-01 -2.344551824344E-01
C58 -3.782682452930E-01  8.741174992987E-02 -2.655448175656E-01
C59 -3.782682452930E-01  4.125882500701E-01  2.344551824344E-01
C60  3.782682452930E-01 -8.741174992987E-02  2.655448175656E-01
H61  3.869397579958E-01 -3.710519046625E-01 -8.533020742002E-02
H62 -3.869397579958E-01  1.289480953375E-01 -4.146697925800E-01
H63 -3.869397579958E-01  3.710519046625E-01  8.533020742002E-02
H64  3.869397579958E-01 -1.289480953375E-01  4.146697925800E-01
C65  4.404740333407E-01 -4.559971129725E-01 -3.647319794408E-01
C66 -4.404740333407E-01  4.400288702752E-02 -1.352680205592E-01
C67 -4.404740333407E-01  4.559971129725E-01  3.647319794408E-01
C68  4.404740333407E-01 -4.400288702752E-02  1.352680205592E-01
C69  4.262602297994E-01  4.717764935664E-01  4.261436523401E-01
C70 -4.262602297994E-01 -2.822350643360E-02  7.385634765986E-02
C71 -4.262602297994E-01 -4.717764935664E-01 -4.261436523401E-01
C72  4.262602297994E-01  2.822350643360E-02 -7.385634765986E-02
C73  3.512960276056E-01  4.539270022720E-01  3.537978439810E-01
C74 -3.512960276056E-01 -4.607299772796E-02  1.462021560190E-01
C75 -3.512960276056E-01 -4.539270022720E-01 -3.537978439810E-01
C76  3.512960276056E-01  4.607299772796E-02 -1.462021560190E-01
H77  3.419796614158E-01  4.080812767685E-01  2.066492748091E-01
H78 -3.419796614158E-01 -9.191872323147E-02  2.933507251909E-01
H79 -3.419796614158E-01 -4.080812767685E-01 -2.066492748091E-01
H80  3.419796614158E-01  9.191872323147E-02 -2.933507251909E-01
C81 -4.864547520425E-01 -4.300118271950E-01 -2.951660499339E-01
C82  4.864547520425E-01  6.998817280500E-02 -2.048339500661E-01
C83  4.864547520425E-01  4.300118271950E-01  2.951660499339E-01
C84 -4.864547520425E-01 -6.998817280500E-02  2.048339500661E-01
H85 -4.770807272648E-01 -3.716640090125E-01 -1.538749272689E-01
H86  4.770807272648E-01  1.283359909875E-01 -3.461250727311E-01
H87  4.770807272648E-01  3.716640090125E-01  1.538749272689E-01
H88 -4.770807272648E-01 -1.283359909875E-01  3.461250727311E-01


#===END

data_OPT_STEP_5

_symmetry_space_group_name_H-M 'P 1'
_cell_length_a     18.13603664
_cell_length_b      7.53301112
_cell_length_c      6.26604146
_cell_angle_alpha   90.000000
_cell_angle_beta   90.345983
_cell_angle_gamma   90.000000

loop_
_atom_site_label
_atom_site_fract_x
_atom_site_fract_y
_atom_site_fract_z
C1  1.606632091066E-01 -3.846512908068E-01  4.830633205808E-01
C2 -1.606632091066E-01  1.153487091932E-01  1.693667941920E-02
C3 -1.606632091066E-01  3.846512908068E-01 -4.830633205808E-01
C4  1.606632091066E-01 -1.153487091932E-01 -1.693667941920E-02
H5  1.758977312181E-01 -2.800020930721E-01 -4.140266660117E-01
H6 -1.758977312181E-01  2.199979069279E-01 -8.597333398832E-02
H7 -1.758977312181E-01  2.800020930721E-01  4.140266660117E-01
H8  1.758977312181E-01 -2.199979069279E-01  8.597333398832E-02
C9  8.757845528850E-02 -3.915501507850E-01  4.095948725557E-01
C10 -8.757845528850E-02  1.084498492150E-01  9.040512744433E-02
C11 -8.757845528850E-02  3.915501507850E-01 -4.095948725557E-01
C12  8.757845528850E-02 -1.084498492150E-01 -9.040512744433E-02
H13  4.828086482255E-02 -3.149647107473E-01  4.817688546504E-01
H14 -4.828086482255E-02  1.850352892527E-01  1.823114534960E-02
H15 -4.828086482255E-02  3.149647107473E-01 -4.817688546504E-01
H16  4.828086482255E-02 -1.850352892527E-01 -1.823114534960E-02
C17  6.820174833527E-02  4.979094748823E-01  2.387477526393E-01
C18 -6.820174833527E-02 -2.090525117668E-03  2.612522473607E-01
C19 -6.820174833527E-02 -4.979094748823E-01 -2.387477526393E-01
C20  6.820174833527E-02  2.090525117668E-03 -2.612522473607E-01
H21  1.498800668276E-02  4.947991344935E-01  1.834489119050E-01
H22 -1.498800668276E-02 -5.200865506462E-03  3.165510880950E-01
H23 -1.498800668276E-02 -4.947991344935E-01 -1.834489119050E-01
H24  1.498800668276E-02  5.200865506461E-03 -3.165510880950E-01
C25  1.219664903456E-01  3.891477358280E-01  1.456862363346E-01
C26 -1.219664903456E-01 -1.108522641720E-01  3.543137636654E-01
C27 -1.219664903456E-01 -3.891477358280E-01 -1.456862363346E-01
C28  1.219664903456E-01  1.108522641720E-01 -3.543137636654E-01
H29  1.072865891709E-01  2.958700085827E-01  3.109255061262E-02
H30 -1.072865891709E-01 -2.041299914173E-01  4.689074493874E-01
H31 -1.072865891709E-01 -2.958700085827E-01 -3.109255061262E-02
H32  1.072865891709E-01  2.041299914173E-01 -4.689074493874E-01
C33  1.937186815898E-01  3.840887724430E-01  2.302523587972E-01
C34 -1.937186815898E-01 -1.159112275570E-01  2.697476412028E-01
C35 -1.937186815898E-01 -3.840887724430E-01 -2.302523587972E-01
C36  1.937186815898E-01  1.159112275570E-01 -2.697476412028E-01
H37  2.274132804547E-01  2.653275921855E-01  1.977368566030E-01
H38 -2.274132804547E-01 -2.346724078145E-01  3.022631433970E-01
H39 -2.274132804547E-01 -2.653275921855E-01 -1.977368566030E-01
H40  2.274132804547E-01  2.346724078145E-01 -3.022631433970E-01
C41  2.150215070914E-01 -4.979955642900E-01  3.959352291256E-01
C42 -2.150215070914E-01  2.004435710026E-03  1.040647708744E-01
C43 -2.150215070914E-01  4.979955642900E-01 -3.959352291256E-01
C44  2.150215070914E-01 -2.004435710026E-03 -1.040647708744E-01
C45  2.924297854016E-01 -4.945406103292E-01  4.791898367799E-01
C46 -2.924297854016E-01  5.459389670766E-03  2.081016322008E-02
C47 -2.924297854016E-01  4.945406103292E-01 -4.791898367799E-01
C48  2.924297854016E-01 -5.459389670766E-03 -2.081016322008E-02
C49  3.075047480926E-01 -4.315652909400E-01 -3.072874414347E-01
C50 -3.075047480926E-01  6.843470905998E-02 -1.927125585653E-01
C51 -3.075047480926E-01  4.315652909400E-01  3.072874414347E-01
C52  3.075047480926E-01 -6.843470905998E-02  1.927125585653E-01
H53  2.645028371552E-01 -4.233559268905E-01 -1.997982212785E-01
H54 -2.645028371552E-01  7.664407310949E-02 -3.002017787215E-01
H55 -2.645028371552E-01  4.233559268905E-01  1.997982212785E-01
H56  2.645028371552E-01 -7.664407310949E-02  3.002017787215E-01
C57  3.783446604271E-01 -4.096638940039E-01 -2.337886324024E-01
C58 -3.783446604271E-01  9.033610599606E-02 -2.662113675976E-01
C59 -3.783446604271E-01  4.096638940039E-01  2.337886324024E-01
C60  3.783446604271E-01 -9.033610599606E-02  2.662113675976E-01
H61  3.874516692992E-01 -3.702514955793E-01 -7.946371519554E-02
H62 -3.874516692992E-01  1.297485044207E-01 -4.205362848045E-01
H63 -3.874516692992E-01  3.702514955793E-01  7.946371519554E-02
H64  3.874516692992E-01 -1.297485044207E-01  4.205362848045E-01
C65  4.404752043976E-01 -4.488205350588E-01 -3.670310975345E-01
C66 -4.404752043976E-01  5.117946494118E-02 -1.329689024655E-01
C67 -4.404752043976E-01  4.488205350588E-01  3.670310975345E-01
C68  4.404752043976E-01 -5.117946494118E-02  1.329689024655E-01
C69  4.262951887337E-01  4.741195548916E-01  4.252808347262E-01
C70 -4.262951887337E-01 -2.588044510839E-02  7.471916527381E-02
C71 -4.262951887337E-01 -4.741195548916E-01 -4.252808347262E-01
C72  4.262951887337E-01  2.588044510838E-02 -7.471916527381E-02
C73  3.513653758047E-01  4.543859630345E-01  3.536867376020E-01
C74 -3.513653758047E-01 -4.561403696555E-02  1.463132623980E-01
C75 -3.513653758047E-01 -4.543859630345E-01 -3.536867376020E-01
C76  3.513653758047E-01  4.561403696555E-02 -1.463132623980E-01
H77  3.421874439792E-01  4.119665571232E-01  2.003548953106E-01
H78 -3.421874439792E-01 -8.803344287675E-02  2.996451046894E-01
H79 -3.421874439792E-01 -4.119665571232E-01 -2.003548953106E-01
H80  3.421874439792E-01  8.803344287675E-02 -2.996451046894E-01
C81 -4.865004519871E-01 -4.222121870757E-01 -2.975794696316E-01
C82  4.865004519871E-01  7.778781292434E-02 -2.024205303684E-01
C83  4.865004519871E-01  4.222121870757E-01  2.975794696316E-01
C84 -4.865004519871E-01 -7.778781292434E-02  2.024205303684E-01
H85 -4.770668349589E-01 -3.499009590254E-01 -1.585675331667E-01
H86  4.770668349589E-01  1.500990409746E-01 -3.414324668333E-01
H87  4.770668349589E-01  3.499009590254E-01  1.585675331667E-01
H88 -4.770668349589E-01 -1.500990409746E-01  3.414324668333E-01


#===END

data_OPT_STEP_6

_symmetry_space_group_name_H-M 'P 1'
_cell_length_a     18.24176238
_cell_length_b      7.84378059
_cell_length_c      6.19562850
_cell_angle_alpha   90.000000
_cell_angle_beta   90.587126
_cell_angle_gamma   90.000000

loop_
_atom_site_label
_atom_site_fract_x
_atom_site_fract_y
_atom_site_fract_z
C1  1.642050229268E-01 -3.665434761593E-01  4.706670753840E-01
C2 -1.642050229268E-01  1.334565238407E-01  2.933292461596E-02
C3 -1.642050229268E-01  3.665434761593E-01 -4.706670753840E-01
C4  1.642050229268E-01 -1.334565238407E-01 -2.933292461596E-02
H5  1.827393428738E-01 -2.402148735954E-01 -4.443868684703E-01
H6 -1.827393428738E-01  2.597851264046E-01 -5.561313152973E-02
H7 -1.827393428738E-01  2.402148735954E-01  4.443868684703E-01
H8  1.827393428738E-01 -2.597851264046E-01  5.561313152973E-02
C9  9.052519624774E-02 -3.761504863948E-01  4.011544352305E-01
C10 -9.052519624774E-02  1.238495136052E-01  9.884556476955E-02
C11 -9.052519624774E-02  3.761504863948E-01 -4.011544352305E-01
C12  9.052519624774E-02 -1.238495136052E-01 -9.884556476955E-02
H13  5.081889041290E-02 -2.963746478652E-01  4.760809990838E-01
H14 -5.081889041290E-02  2.036253521348E-01  2.391900091622E-02
H15 -5.081889041290E-02  2.963746478652E-01 -4.760809990838E-01
H16  5.081889041290E-02 -2.036253521348E-01 -2.391900091622E-02
C17  6.816678883650E-02  4.977250935529E-01  2.465794228108E-01
C18 -6.816678883650E-02 -2.274906447119E-03  2.534205771892E-01
C19 -6.816678883650E-02 -4.977250935529E-01 -2.465794228108E-01
C20  6.816678883650E-02  2.274906447119E-03 -2.534205771892E-01
H21  1.326721379883E-02  4.968883246429E-01  1.871170872141E-01
H22 -1.326721379883E-02 -3.111675357053E-03  3.128829127859E-01
H23 -1.326721379883E-02 -4.968883246429E-01 -1.871170872141E-01
H24  1.326721379883E-02  3.111675357053E-03 -3.128829127859E-01
C25  1.185344706815E-01  3.659983301119E-01  1.757883570751E-01
C26 -1.185344706815E-01 -1.340016698881E-01  3.242116429249E-01
C27 -1.185344706815E-01 -3.659983301119E-01 -1.757883570751E-01
C28  1.185344706815E-01  1.340016698881E-01 -3.242116429249E-01
H29  9.852018381434E-02  2.314314864871E-01  9.435214842992E-02
H30 -9.852018381434E-02 -2.685685135129E-01  4.056478515701E-01
H31 -9.852018381434E-02 -2.314314864871E-01 -9.435214842992E-02
H32  9.852018381434E-02  2.685685135129E-01 -4.056478515701E-01
C33  1.927854855229E-01  3.826959560548E-01  2.403561936662E-01
C34 -1.927854855229E-01 -1.173040439453E-01  2.596438063338E-01
C35 -1.927854855229E-01 -3.826959560548E-01 -2.403561936662E-01
C36  1.927854855229E-01  1.173040439452E-01 -2.596438063338E-01
H37  2.287200571577E-01  2.898097809824E-01  1.857591450742E-01
H38 -2.287200571577E-01 -2.101902190176E-01  3.142408549258E-01
H39 -2.287200571577E-01 -2.898097809824E-01 -1.857591450742E-01
H40  2.287200571577E-01  2.101902190176E-01 -3.142408549258E-01
C41  2.160616258958E-01 -4.910942786800E-01  3.959257447517E-01
C42 -2.160616258958E-01  8.905721319958E-03  1.040742552483E-01
C43 -2.160616258958E-01  4.910942786800E-01 -3.959257447517E-01
C44  2.160616258958E-01 -8.905721319958E-03 -1.040742552483E-01
C45  2.932790593831E-01 -4.869708384692E-01  4.779743383850E-01
C46 -2.932790593831E-01  1.302916153082E-02  2.202566161500E-02
C47 -2.932790593831E-01  4.869708384692E-01 -4.779743383850E-01
C48  2.932790593831E-01 -1.302916153082E-02 -2.202566161500E-02
C49  3.085800369666E-01 -4.313816924353E-01 -3.036267826278E-01
C50 -3.085800369666E-01  6.861830756469E-02 -1.963732173722E-01
C51 -3.085800369666E-01  4.313816924353E-01  3.036267826278E-01
C52  3.085800369666E-01 -6.861830756469E-02  1.963732173722E-01
H53  2.644873060955E-01 -4.474431971621E-01 -1.818290281433E-01
H54 -2.644873060955E-01  5.255680283789E-02 -3.181709718567E-01
H55 -2.644873060955E-01  4.474431971621E-01  1.818290281433E-01
H56  2.644873060955E-01 -5.255680283789E-02  3.181709718567E-01
C57  3.795852557892E-01 -4.030275999091E-01 -2.333301563598E-01
C58 -3.795852557892E-01  9.697240009087E-02 -2.666698436402E-01
C59 -3.795852557892E-01  4.030275999091E-01  2.333301563598E-01
C60  3.795852557892E-01 -9.697240009087E-02  2.666698436402E-01
H61  3.897898872961E-01 -3.680321926760E-01 -7.017933966969E-02
H62 -3.897898872961E-01  1.319678073240E-01 -4.298206603303E-01
H63 -3.897898872961E-01  3.680321926760E-01  7.017933966969E-02
H64  3.897898872961E-01 -1.319678073240E-01  4.298206603303E-01
C65  4.410748944862E-01 -4.412545035348E-01 -3.690339704377E-01
C66 -4.410748944862E-01  5.874549646521E-02 -1.309660295623E-01
C67 -4.410748944862E-01  4.412545035348E-01  3.690339704377E-01
C68  4.410748944862E-01 -5.874549646521E-02  1.309660295623E-01
C69  4.262820748785E-01  4.746295778276E-01  4.253348544654E-01
C70 -4.262820748785E-01 -2.537042217240E-02  7.466514553460E-02
C71 -4.262820748785E-01 -4.746295778276E-01 -4.253348544654E-01
C72  4.262820748785E-01  2.537042217240E-02 -7.466514553460E-02
C73  3.514086953842E-01  4.603289219831E-01  3.512274806750E-01
C74 -3.514086953842E-01 -3.967107801686E-02  1.487725193250E-01
C75 -3.514086953842E-01 -4.603289219831E-01 -3.512274806750E-01
C76  3.514086953842E-01  3.967107801686E-02 -1.487725193250E-01
H77  3.418758315426E-01  4.248041997933E-01  1.874389401320E-01
H78 -3.418758315426E-01 -7.519580020670E-02  3.125610598680E-01
H79 -3.418758315426E-01 -4.248041997933E-01 -1.874389401320E-01
H80  3.418758315426E-01  7.519580020670E-02 -3.125610598680E-01
C81 -4.858986445546E-01 -4.136345323636E-01 -2.999639768029E-01
C82  4.858986445546E-01  8.636546763644E-02 -2.000360231971E-01
C83  4.858986445546E-01  4.136345323636E-01  2.999639768029E-01
C84 -4.858986445546E-01 -8.636546763644E-02  2.000360231971E-01
H85 -4.759169854952E-01 -3.211390832737E-01 -1.645281347234E-01
H86  4.759169854952E-01  1.788609167263E-01 -3.354718652766E-01
H87  4.759169854952E-01  3.211390832737E-01  1.645281347234E-01
H88 -4.759169854952E-01 -1.788609167263E-01  3.354718652766E-01


#===END

data_OPT_STEP_7

_symmetry_space_group_name_H-M 'P 1'
_cell_length_a     18.18611577
_cell_length_b      7.62475604
_cell_length_c      6.29533309
_cell_angle_alpha   90.000000
_cell_angle_beta   90.640242
_cell_angle_gamma   90.000000

loop_
_atom_site_label
_atom_site_fract_x
_atom_site_fract_y
_atom_site_fract_z
C1  1.622192652741E-01 -3.832990859725E-01  4.814271395062E-01
C2 -1.622192652741E-01  1.167009140275E-01  1.857286049377E-02
C3 -1.622192652741E-01  3.832990859725E-01 -4.814271395062E-01
C4  1.622192652741E-01 -1.167009140275E-01 -1.857286049377E-02
H5  1.768589791258E-01 -2.924922221104E-01 -4.034954411288E-01
H6 -1.768589791258E-01  2.075077778896E-01 -9.650455887115E-02
H7 -1.768589791258E-01  2.924922221104E-01  4.034954411288E-01
H8  1.768589791258E-01 -2.075077778896E-01  9.650455887115E-02
C9  8.897118707817E-02 -3.877300447627E-01  4.082374526831E-01
C10 -8.897118707817E-02  1.122699552373E-01  9.176254731692E-02
C11 -8.897118707817E-02  3.877300447627E-01 -4.082374526831E-01
C12  8.897118707817E-02 -1.122699552373E-01 -9.176254731692E-02
H13  4.981324826528E-02 -3.049809137050E-01  4.789869359291E-01
H14 -4.981324826528E-02  1.950190862950E-01  2.101306407086E-02
H15 -4.981324826528E-02  3.049809137050E-01 -4.789869359291E-01
H16  4.981324826528E-02 -1.950190862950E-01 -2.101306407086E-02
C17  6.763772453100E-02  4.934991732871E-01  2.483260920012E-01
C18 -6.763772453100E-02 -6.500826712865E-03  2.516739079988E-01
C19 -6.763772453100E-02 -4.934991732871E-01 -2.483260920012E-01
C20  6.763772453100E-02  6.500826712865E-03 -2.516739079988E-01
H21  1.333456883241E-02  4.930482344972E-01  1.890471409396E-01
H22 -1.333456883241E-02 -6.951765502843E-03  3.109528590604E-01
H23 -1.333456883241E-02 -4.930482344972E-01 -1.890471409396E-01
H24  1.333456883241E-02  6.951765502842E-03 -3.109528590604E-01
C25  1.209571079880E-01  3.863943438235E-01  1.563349309462E-01
C26 -1.209571079880E-01 -1.136056561765E-01  3.436650690538E-01
C27 -1.209571079880E-01 -3.863943438235E-01 -1.563349309462E-01
C28  1.209571079880E-01  1.136056561765E-01 -3.436650690538E-01
H29  1.072800918042E-01  3.091253209364E-01  2.695296861422E-02
H30 -1.072800918042E-01 -1.908746790636E-01  4.730470313858E-01
H31 -1.072800918042E-01 -3.091253209364E-01 -2.695296861422E-02
H32  1.072800918042E-01  1.908746790636E-01 -4.730470313858E-01
C33  1.922041212451E-01  3.744151704635E-01  2.451196681807E-01
C34 -1.922041212451E-01 -1.255848295365E-01  2.548803318193E-01
C35 -1.922041212451E-01 -3.744151704635E-01 -2.451196681807E-01
C36  1.922041212451E-01  1.255848295365E-01 -2.548803318193E-01
H37  2.266426776624E-01  2.657441550517E-01  2.054427331352E-01
H38 -2.266426776624E-01 -2.342558449483E-01  2.945572668648E-01
H39 -2.266426776624E-01 -2.657441550517E-01 -2.054427331352E-01
H40  2.266426776624E-01  2.342558449483E-01 -2.945572668648E-01
C41  2.155149755024E-01 -4.979627057433E-01  3.976484667179E-01
C42 -2.155149755024E-01  2.037294256675E-03  1.023515332821E-01
C43 -2.155149755024E-01  4.979627057433E-01 -3.976484667179E-01
C44  2.155149755024E-01 -2.037294256676E-03 -1.023515332821E-01
C45  2.928989992354E-01 -4.936679329320E-01  4.786037960520E-01
C46 -2.928989992354E-01  6.332067067992E-03  2.139620394798E-02
C47 -2.928989992354E-01  4.936679329320E-01 -4.786037960520E-01
C48  2.928989992354E-01 -6.332067067992E-03 -2.139620394798E-02
C49  3.080430694026E-01 -4.370102478953E-01 -3.059734372397E-01
C50 -3.080430694026E-01  6.298975210475E-02 -1.940265627603E-01
C51 -3.080430694026E-01  4.370102478953E-01  3.059734372397E-01
C52  3.080430694026E-01 -6.298975210475E-02  1.940265627603E-01
H53  2.645169478979E-01 -4.257767773584E-01 -1.987027185387E-01
H54 -2.645169478979E-01  7.422322264160E-02 -3.012972814613E-01
H55 -2.645169478979E-01  4.257767773584E-01  1.987027185387E-01
H56  2.645169478979E-01 -7.422322264160E-02  3.012972814613E-01
C57  3.789910261635E-01 -4.125850611686E-01 -2.340314563573E-01
C58 -3.789910261635E-01  8.741493883138E-02 -2.659685436427E-01
C59 -3.789910261635E-01  4.125850611686E-01  2.340314563573E-01
C60  3.789910261635E-01 -8.741493883138E-02  2.659685436427E-01
H61  3.889374937667E-01 -3.728485959381E-01 -7.640239725614E-02
H62 -3.889374937667E-01  1.271514040619E-01 -4.235976027439E-01
H63 -3.889374937667E-01  3.728485959381E-01  7.640239725614E-02
H64  3.889374937667E-01 -1.271514040619E-01  4.235976027439E-01
C65  4.407916703650E-01 -4.485546813927E-01 -3.684739717079E-01
C66 -4.407916703650E-01  5.144531860735E-02 -1.315260282921E-01
C67 -4.407916703650E-01  4.485546813927E-01  3.684739717079E-01
C68  4.407916703650E-01 -5.144531860735E-02  1.315260282921E-01
C69  4.262926711306E-01  4.730927420075E-01  4.257491128976E-01
C70 -4.262926711306E-01 -2.690725799248E-02  7.425088710243E-02
C71 -4.262926711306E-01 -4.730927420075E-01 -4.257491128976E-01
C72  4.262926711306E-01  2.690725799248E-02 -7.425088710243E-02
C73  3.513986937983E-01  4.587559958451E-01  3.516463641864E-01
C74 -3.513986937983E-01 -4.124400415494E-02  1.483536358136E-01
C75 -3.513986937983E-01 -4.587559958451E-01 -3.516463641864E-01
C76  3.513986937983E-01  4.124400415494E-02 -1.483536358136E-01
H77  3.419072304331E-01  4.180789321475E-01  1.938650319020E-01
H78 -3.419072304331E-01 -8.192106785251E-02  3.061349680980E-01
H79 -3.419072304331E-01 -4.180789321475E-01 -1.938650319020E-01
H80  3.419072304331E-01  8.192106785251E-02 -3.061349680980E-01
C81 -4.861267557382E-01 -4.215041932086E-01 -2.992362538599E-01
C82  4.861267557382E-01  7.849580679142E-02 -2.007637461401E-01
C83  4.861267557382E-01  4.215041932086E-01  2.992362538599E-01
C84 -4.861267557382E-01 -7.849580679142E-02  2.007637461401E-01
H85 -4.761840380042E-01 -3.550575594647E-01 -1.560665902066E-01
H86  4.761840380042E-01  1.449424405353E-01 -3.439334097934E-01
H87  4.761840380042E-01  3.550575594647E-01  1.560665902066E-01
H88 -4.761840380042E-01 -1.449424405353E-01  3.439334097934E-01


#===END

data_OPT_STEP_8

_symmetry_space_group_name_H-M 'P 1'
_cell_length_a     18.21312058
_cell_length_b      7.86646724
_cell_length_c      6.24616273
_cell_angle_alpha   90.000000
_cell_angle_beta   90.511332
_cell_angle_gamma   90.000000

loop_
_atom_site_label
_atom_site_fract_x
_atom_site_fract_y
_atom_site_fract_z
C1  1.645707375305E-01 -3.659942326592E-01  4.689518152767E-01
C2 -1.645707375305E-01  1.340057673408E-01  3.104818472334E-02
C3 -1.645707375305E-01  3.659942326592E-01 -4.689518152767E-01
C4  1.645707375305E-01 -1.340057673408E-01 -3.104818472334E-02
H5  1.837516329359E-01 -2.394702465122E-01 -4.470601295950E-01
H6 -1.837516329359E-01  2.605297534878E-01 -5.293987040501E-02
H7 -1.837516329359E-01  2.394702465122E-01  4.470601295950E-01
H8  1.837516329359E-01 -2.605297534878E-01  5.293987040501E-02
C9  9.025035762140E-02 -3.777298019899E-01  4.038920837563E-01
C10 -9.025035762140E-02  1.222701980101E-01  9.610791624373E-02
C11 -9.025035762140E-02  3.777298019899E-01 -4.038920837563E-01
C12  9.025035762140E-02 -1.222701980101E-01 -9.610791624373E-02
H13  5.070770775650E-02 -2.917445579642E-01  4.758534820771E-01
H14 -5.070770775650E-02  2.082554420358E-01  2.414651792289E-02
H15 -5.070770775650E-02  2.917445579642E-01 -4.758534820771E-01
H16  5.070770775650E-02 -2.082554420358E-01 -2.414651792289E-02
C17  6.743883508804E-02  4.958693515806E-01  2.525242915258E-01
C18 -6.743883508804E-02 -4.130648419378E-03  2.474757084742E-01
C19 -6.743883508804E-02 -4.958693515806E-01 -2.525242915258E-01
C20  6.743883508804E-02  4.130648419377E-03 -2.474757084742E-01
H21  1.177920851957E-02  4.961493578111E-01  1.907288891108E-01
H22 -1.177920851957E-02 -3.850642188907E-03  3.092711108892E-01
H23 -1.177920851957E-02 -4.961493578111E-01 -1.907288891108E-01
H24  1.177920851957E-02  3.850642188907E-03 -3.092711108892E-01
C25  1.175832602442E-01  3.624125934814E-01  1.854211934377E-01
C26 -1.175832602442E-01 -1.375874065186E-01  3.145788065623E-01
C27 -1.175832602442E-01 -3.624125934814E-01 -1.854211934377E-01
C28  1.175832602442E-01  1.375874065186E-01 -3.145788065623E-01
H29  9.804010606690E-02  2.353122575206E-01  9.733921773910E-02
H30 -9.804010606690E-02 -2.646877424794E-01  4.026607822609E-01
H31 -9.804010606690E-02 -2.353122575206E-01 -9.733921773910E-02
H32  9.804010606690E-02  2.646877424794E-01 -4.026607822609E-01
C33  1.925744790315E-01  3.838940096603E-01  2.438295909785E-01
C34 -1.925744790315E-01 -1.161059903397E-01  2.561704090215E-01
C35 -1.925744790315E-01 -3.838940096603E-01 -2.438295909785E-01
C36  1.925744790315E-01  1.161059903397E-01 -2.561704090215E-01
H37  2.287033278917E-01  2.906908412812E-01  1.909824194440E-01
H38 -2.287033278917E-01 -2.093091587188E-01  3.090175805560E-01
H39 -2.287033278917E-01 -2.906908412812E-01 -1.909824194440E-01
H40  2.287033278917E-01  2.093091587188E-01 -3.090175805560E-01
C41  2.156128926795E-01 -4.954437147834E-01  4.003687611027E-01
C42 -2.156128926795E-01  4.556285216583E-03  9.963123889728E-02
C43 -2.156128926795E-01  4.954437147834E-01 -4.003687611027E-01
C44  2.156128926795E-01 -4.556285216583E-03 -9.963123889728E-02
C45  2.928581949236E-01 -4.926110767642E-01  4.815818084652E-01
C46 -2.928581949236E-01  7.388923235847E-03  1.841819153480E-02
C47 -2.928581949236E-01  4.926110767642E-01 -4.815818084652E-01
C48  2.928581949236E-01 -7.388923235847E-03 -1.841819153480E-02
C49  3.081539222094E-01 -4.375421622797E-01 -3.012407463537E-01
C50 -3.081539222094E-01  6.245783772032E-02 -1.987592536463E-01
C51 -3.081539222094E-01  4.375421622797E-01  3.012407463537E-01
C52  3.081539222094E-01 -6.245783772032E-02  1.987592536463E-01
H53  2.635838670204E-01 -4.430133504061E-01 -1.832845930615E-01
H54 -2.635838670204E-01  5.698664959390E-02 -3.167154069385E-01
H55 -2.635838670204E-01  4.430133504061E-01  1.832845930615E-01
H56  2.635838670204E-01 -5.698664959390E-02  3.167154069385E-01
C57  3.793405783029E-01 -4.107058930897E-01 -2.313682933436E-01
C58 -3.793405783029E-01  8.929410691027E-02 -2.686317066564E-01
C59 -3.793405783029E-01  4.107058930897E-01  2.313682933436E-01
C60  3.793405783029E-01 -8.929410691027E-02  2.686317066564E-01
H61  3.900029250421E-01 -3.739357873519E-01 -6.741998311341E-02
H62 -3.900029250421E-01  1.260642126481E-01 -4.325800168866E-01
H63 -3.900029250421E-01  3.739357873519E-01  6.741998311341E-02
H64  3.900029250421E-01 -1.260642126481E-01  4.325800168866E-01
C65  4.409666526187E-01 -4.483560272548E-01 -3.669703279988E-01
C66 -4.409666526187E-01  5.164397274520E-02 -1.330296720012E-01
C67 -4.409666526187E-01  4.483560272548E-01  3.669703279988E-01
C68  4.409666526187E-01 -5.164397274520E-02  1.330296720012E-01
C69  4.261590737873E-01  4.756582826684E-01  4.254608235882E-01
C70 -4.261590737873E-01 -2.434171733157E-02  7.453917641180E-02
C71 -4.261590737873E-01 -4.756582826684E-01 -4.254608235882E-01
C72  4.261590737873E-01  2.434171733157E-02 -7.453917641180E-02
C73  3.510822731030E-01  4.597786866472E-01  3.529226842983E-01
C74 -3.510822731030E-01 -4.022131335280E-02  1.470773157017E-01
C75 -3.510822731030E-01 -4.597786866472E-01 -3.529226842983E-01
C76  3.510822731030E-01  4.022131335280E-02 -1.470773157017E-01
H77  3.414174461407E-01  4.242480325686E-01  1.875089190584E-01
H78 -3.414174461407E-01 -7.575196743139E-02  3.124910809416E-01
H79 -3.414174461407E-01 -4.242480325686E-01 -1.875089190584E-01
H80  3.414174461407E-01  7.575196743139E-02 -3.124910809416E-01
C81 -4.858043553357E-01 -4.230467826737E-01 -2.974971741388E-01
C82  4.858043553357E-01  7.695321732629E-02 -2.025028258612E-01
C83  4.858043553357E-01  4.230467826737E-01  2.974971741388E-01
C84 -4.858043553357E-01 -7.695321732629E-02  2.025028258612E-01
H85 -4.755308012383E-01 -3.434601915873E-01 -1.557658049033E-01
H86  4.755308012383E-01  1.565398084127E-01 -3.442341950967E-01
H87  4.755308012383E-01  3.434601915873E-01  1.557658049033E-01
H88 -4.755308012383E-01 -1.565398084127E-01  3.442341950967E-01


#===END

data_OPT_STEP_9

_symmetry_space_group_name_H-M 'P 1'
_cell_length_a     18.18997682
_cell_length_b      7.66127139
_cell_length_c      6.28362710
_cell_angle_alpha   90.000000
_cell_angle_beta   90.593115
_cell_angle_gamma   90.000000

loop_
_atom_site_label
_atom_site_fract_x
_atom_site_fract_y
_atom_site_fract_z
C1  1.625321433112E-01 -3.820867632317E-01  4.807817866252E-01
C2 -1.625321433112E-01  1.179132367683E-01  1.921821337476E-02
C3 -1.625321433112E-01  3.820867632317E-01 -4.807817866252E-01
C4  1.625321433112E-01 -1.179132367683E-01 -1.921821337476E-02
H5  1.785670401086E-01 -2.798910480386E-01 -4.134672131988E-01
H6 -1.785670401086E-01  2.201089519614E-01 -8.653278680122E-02
H7 -1.785670401086E-01  2.798910480386E-01  4.134672131988E-01
H8  1.785670401086E-01 -2.201089519614E-01  8.653278680122E-02
C9  8.912765927038E-02 -3.871610780098E-01  4.085286078699E-01
C10 -8.912765927038E-02  1.128389219902E-01  9.147139213007E-02
C11 -8.912765927038E-02  3.871610780098E-01 -4.085286078699E-01
C12  8.912765927038E-02 -1.128389219902E-01 -9.147139213007E-02
H13  4.974891039121E-02 -3.027106719679E-01  4.794954733355E-01
H14 -4.974891039121E-02  1.972893280321E-01  2.050452666451E-02
H15 -4.974891039121E-02  3.027106719679E-01 -4.794954733355E-01
H16  4.974891039121E-02 -1.972893280321E-01 -2.050452666451E-02
C17  6.779556545684E-02  4.947912781183E-01  2.478878614611E-01
C18 -6.779556545684E-02 -5.208721881748E-03  2.521121385389E-01
C19 -6.779556545684E-02 -4.947912781183E-01 -2.478878614611E-01
C20  6.779556545684E-02  5.208721881747E-03 -2.521121385389E-01
H21  1.289309382873E-02  4.940252734084E-01  1.882806018531E-01
H22 -1.289309382873E-02 -5.974726591597E-03  3.117193981469E-01
H23 -1.289309382873E-02 -4.940252734084E-01 -1.882806018531E-01
H24  1.289309382873E-02  5.974726591597E-03 -3.117193981469E-01
C25  1.203935375593E-01  3.808270710634E-01  1.619615012645E-01
C26 -1.203935375593E-01 -1.191729289366E-01  3.380384987355E-01
C27 -1.203935375593E-01 -3.808270710634E-01 -1.619615012645E-01
C28  1.203935375593E-01  1.191729289366E-01 -3.380384987355E-01
H29  1.050763632633E-01  2.890811551594E-01  4.369423640161E-02
H30 -1.050763632633E-01 -2.109188448406E-01  4.563057635984E-01
H31 -1.050763632633E-01 -2.890811551594E-01 -4.369423640161E-02
H32  1.050763632633E-01  2.109188448406E-01 -4.563057635984E-01
C33  1.926738923547E-01  3.782180509199E-01  2.425699194078E-01
C34 -1.926738923547E-01 -1.217819490801E-01  2.574300805922E-01
C35 -1.926738923547E-01 -3.782180509199E-01 -2.425699194078E-01
C36  1.926738923547E-01  1.217819490801E-01 -2.574300805922E-01
H37  2.278347884769E-01  2.759937548745E-01  1.974739402119E-01
H38 -2.278347884769E-01 -2.240062451255E-01  3.025260597881E-01
H39 -2.278347884769E-01 -2.759937548745E-01 -1.974739402119E-01
H40  2.278347884769E-01  2.240062451255E-01 -3.025260597881E-01
C41  2.153487766700E-01  4.997728440397E-01  4.002758504160E-01
C42 -2.153487766700E-01 -2.271559603309E-04  9.972414958396E-02
C43 -2.153487766700E-01 -4.997728440397E-01 -4.002758504160E-01
C44  2.153487766700E-01  2.271559603307E-04 -9.972414958396E-02
C45  2.927828025815E-01 -4.950406753193E-01  4.803896763188E-01
C46 -2.927828025815E-01  4.959324680704E-03  1.961032368117E-02
C47 -2.927828025815E-01  4.950406753193E-01 -4.803896763188E-01
C48  2.927828025815E-01 -4.959324680705E-03 -1.961032368117E-02
C49  3.080161529681E-01 -4.372430934250E-01 -3.043220653499E-01
C50 -3.080161529681E-01  6.275690657501E-02 -1.956779346501E-01
C51 -3.080161529681E-01  4.372430934250E-01  3.043220653499E-01
C52  3.080161529681E-01 -6.275690657501E-02  1.956779346501E-01
H53  2.640742979302E-01 -4.313369881667E-01 -1.934791895649E-01
H54 -2.640742979302E-01  6.866301183329E-02 -3.065208104351E-01
H55 -2.640742979302E-01  4.313369881667E-01  1.934791895649E-01
H56  2.640742979302E-01 -6.866301183329E-02  3.065208104351E-01
C57  3.790625292046E-01 -4.121748597998E-01 -2.330528532107E-01
C58 -3.790625292046E-01  8.782514020023E-02 -2.669471467893E-01
C59 -3.790625292046E-01  4.121748597998E-01  2.330528532107E-01
C60  3.790625292046E-01 -8.782514020023E-02  2.669471467893E-01
H61  3.892894025520E-01 -3.730696568801E-01 -7.322764257326E-02
H62 -3.892894025520E-01  1.269303431199E-01 -4.267723574267E-01
H63 -3.892894025520E-01  3.730696568801E-01  7.322764257326E-02
H64  3.892894025520E-01 -1.269303431199E-01  4.267723574267E-01
C65  4.408240391530E-01 -4.489660872021E-01 -3.677937323505E-01
C66 -4.408240391530E-01  5.103391279786E-02 -1.322062676495E-01
C67 -4.408240391530E-01  4.489660872021E-01  3.677937323505E-01
C68  4.408240391530E-01 -5.103391279786E-02  1.322062676495E-01
C69  4.262211726865E-01  4.741964246557E-01  4.254443354596E-01
C70 -4.262211726865E-01 -2.580357534430E-02  7.455566454039E-02
C71 -4.262211726865E-01 -4.741964246557E-01 -4.254443354596E-01
C72  4.262211726865E-01  2.580357534430E-02 -7.455566454039E-02
C73  3.512233368659E-01  4.584061751132E-01  3.522834207292E-01
C74 -3.512233368659E-01 -4.159382488681E-02  1.477165792708E-01
C75 -3.512233368659E-01 -4.584061751132E-01 -3.522834207292E-01
C76  3.512233368659E-01  4.159382488681E-02 -1.477165792708E-01
H77  3.416663910800E-01  4.192837816423E-01  1.917467157806E-01
H78 -3.416663910800E-01 -8.071621835765E-02  3.082532842194E-01
H79 -3.416663910800E-01 -4.192837816423E-01 -1.917467157806E-01
H80  3.416663910800E-01  8.071621835765E-02 -3.082532842194E-01
C81 -4.860226287090E-01 -4.227834601542E-01 -2.982580416387E-01
C82  4.860226287090E-01  7.721653984582E-02 -2.017419583613E-01
C83  4.860226287090E-01  4.227834601542E-01  2.982580416387E-01
C84 -4.860226287090E-01 -7.721653984582E-02  2.017419583613E-01
H85 -4.759733954844E-01 -3.515876869273E-01 -1.555261575638E-01
H86  4.759733954844E-01  1.484123130727E-01 -3.444738424362E-01
H87  4.759733954844E-01  3.515876869273E-01  1.555261575638E-01
H88 -4.759733954844E-01 -1.484123130727E-01  3.444738424362E-01


#===END

data_OPT_STEP_10

_symmetry_space_group_name_H-M 'P 1'
_cell_length_a     18.22111003
_cell_length_b      7.82723648
_cell_length_c      6.24366825
_cell_angle_alpha   90.000000
_cell_angle_beta   90.489481
_cell_angle_gamma   90.000000

loop_
_atom_site_label
_atom_site_fract_x
_atom_site_fract_y
_atom_site_fract_z
C1  1.639706083079E-01 -3.732782035592E-01  4.743630300909E-01
C2 -1.639706083079E-01  1.267217964408E-01  2.563696990906E-02
C3 -1.639706083079E-01  3.732782035592E-01 -4.743630300909E-01
C4  1.639706083079E-01 -1.267217964408E-01 -2.563696990906E-02
H5  1.808780205524E-01 -2.691341126425E-01 -4.215080953653E-01
H6 -1.808780205524E-01  2.308658873575E-01 -7.849190463468E-02
H7 -1.808780205524E-01  2.691341126425E-01  4.215080953653E-01
H8  1.808780205524E-01 -2.308658873575E-01  7.849190463468E-02
C9  9.037811955129E-02 -3.785008210233E-01  4.037012523503E-01
C10 -9.037811955129E-02  1.214991789767E-01  9.629874764974E-02
C11 -9.037811955129E-02  3.785008210233E-01 -4.037012523503E-01
C12  9.037811955129E-02 -1.214991789767E-01 -9.629874764974E-02
H13  5.108108552908E-02 -2.913880277693E-01  4.748512516333E-01
H14 -5.108108552908E-02  2.086119722307E-01  2.514874836667E-02
H15 -5.108108552908E-02  2.913880277693E-01 -4.748512516333E-01
H16  5.108108552908E-02 -2.086119722307E-01 -2.514874836667E-02
C17  6.755794660012E-02  4.963104608420E-01  2.513388410650E-01
C18 -6.755794660012E-02 -3.689539157972E-03  2.486611589350E-01
C19 -6.755794660012E-02 -4.963104608420E-01 -2.513388410650E-01
C20  6.755794660012E-02  3.689539157972E-03 -2.486611589350E-01
H21  1.185532241608E-02  4.962141502867E-01  1.908540861433E-01
H22 -1.185532241608E-02 -3.785849713260E-03  3.091459138567E-01
H23 -1.185532241608E-02 -4.962141502867E-01 -1.908540861433E-01
H24  1.185532241608E-02  3.785849713260E-03 -3.091459138567E-01
C25  1.183128476177E-01  3.702185354398E-01  1.769634764194E-01
C26 -1.183128476177E-01 -1.297814645602E-01  3.230365235806E-01
C27 -1.183128476177E-01 -3.702185354398E-01 -1.769634764194E-01
C28  1.183128476177E-01  1.297814645602E-01 -3.230365235806E-01
H29  9.979657162962E-02  2.546994305548E-01  7.904875787054E-02
H30 -9.979657162962E-02 -2.453005694452E-01  4.209512421295E-01
H31 -9.979657162962E-02 -2.546994305548E-01 -7.904875787054E-02
H32  9.979657162962E-02  2.453005694452E-01 -4.209512421295E-01
C33  1.913754752473E-01  3.735144141736E-01  2.514189383221E-01
C34 -1.913754752473E-01 -1.264855858264E-01  2.485810616779E-01
C35 -1.913754752473E-01 -3.735144141736E-01 -2.514189383221E-01
C36  1.913754752473E-01  1.264855858264E-01 -2.485810616779E-01
H37  2.258423508935E-01  2.647861978727E-01  2.123954230194E-01
H38 -2.258423508935E-01 -2.352138021273E-01  2.876045769806E-01
H39 -2.258423508935E-01 -2.647861978727E-01 -2.123954230194E-01
H40  2.258423508935E-01  2.352138021273E-01 -2.876045769806E-01
C41  2.159252677010E-01 -4.936918009620E-01  3.969166938061E-01
C42 -2.159252677010E-01  6.308199037951E-03  1.030833061939E-01
C43 -2.159252677010E-01  4.936918009620E-01 -3.969166938061E-01
C44  2.159252677010E-01 -6.308199037951E-03 -1.030833061939E-01
C45  2.931105691224E-01 -4.910925465178E-01  4.785368370419E-01
C46 -2.931105691224E-01  8.907453482182E-03  2.146316295805E-02
C47 -2.931105691224E-01  4.910925465178E-01 -4.785368370419E-01
C48  2.931105691224E-01 -8.907453482182E-03 -2.146316295805E-02
C49  3.080358589933E-01 -4.367690464035E-01 -3.036825118772E-01
C50 -3.080358589933E-01  6.323095359648E-02 -1.963174881228E-01
C51 -3.080358589933E-01  4.367690464035E-01  3.036825118772E-01
C52  3.080358589933E-01 -6.323095359649E-02  1.963174881228E-01
H53  2.634992548176E-01 -4.256234301174E-01 -1.934552803812E-01
H54 -2.634992548176E-01  7.437656988261E-02 -3.065447196188E-01
H55 -2.634992548176E-01  4.256234301174E-01  1.934552803812E-01
H56  2.634992548176E-01 -7.437656988261E-02  3.065447196188E-01
C57  3.789920560965E-01 -4.105036598198E-01 -2.326302199508E-01
C58 -3.789920560965E-01  8.949634018023E-02 -2.673697800492E-01
C59 -3.789920560965E-01  4.105036598198E-01  2.326302199508E-01
C60  3.789920560965E-01 -8.949634018023E-02  2.673697800492E-01
H61  3.893514657055E-01 -3.726526439101E-01 -6.912575177762E-02
H62 -3.893514657055E-01  1.273473560899E-01 -4.308742482224E-01
H63 -3.893514657055E-01  3.726526439101E-01  6.912575177762E-02
H64  3.893514657055E-01 -1.273473560899E-01  4.308742482224E-01
C65  4.408105284110E-01 -4.525683079740E-01 -3.656745565990E-01
C66 -4.408105284110E-01  4.743169202596E-02 -1.343254434010E-01
C67 -4.408105284110E-01  4.525683079740E-01  3.656745565990E-01
C68  4.408105284110E-01 -4.743169202596E-02  1.343254434010E-01
C69  4.263456409174E-01  4.722340064618E-01  4.259949711399E-01
C70 -4.263456409174E-01 -2.776599353822E-02  7.400502886013E-02
C71 -4.263456409174E-01 -4.722340064618E-01 -4.259949711399E-01
C72  4.263456409174E-01  2.776599353821E-02 -7.400502886013E-02
C73  3.514383062330E-01  4.588850822610E-01  3.515632236233E-01
C74 -3.514383062330E-01 -4.111491773897E-02  1.484367763767E-01
C75 -3.514383062330E-01 -4.588850822610E-01 -3.515632236233E-01
C76  3.514383062330E-01  4.111491773897E-02 -1.484367763767E-01
H77  3.419540443807E-01  4.222147626746E-01  1.867688635303E-01
H78 -3.419540443807E-01 -7.778523732542E-02  3.132311364697E-01
H79 -3.419540443807E-01 -4.222147626746E-01 -1.867688635303E-01
H80  3.419540443807E-01  7.778523732542E-02 -3.132311364697E-01
C81 -4.861213546259E-01 -4.274872073187E-01 -2.952147147345E-01
C82  4.861213546259E-01  7.251279268134E-02 -2.047852852655E-01
C83  4.861213546259E-01  4.274872073187E-01  2.952147147345E-01
C84 -4.861213546259E-01 -7.251279268134E-02  2.047852852655E-01
H85 -4.759785421301E-01 -3.598933492860E-01 -1.481613059498E-01
H86  4.759785421301E-01  1.401066507140E-01 -3.518386940502E-01
H87  4.759785421301E-01  3.598933492860E-01  1.481613059498E-01
H88 -4.759785421301E-01 -1.401066507140E-01  3.518386940502E-01


#===END

data_OPT_STEP_11

_symmetry_space_group_name_H-M 'P 1'
_cell_length_a     18.11097904
_cell_length_b      7.89507797
_cell_length_c      6.25834775
_cell_angle_alpha   90.000000
_cell_angle_beta   89.453860
_cell_angle_gamma   90.000000

loop_
_atom_site_label
_atom_site_fract_x
_atom_site_fract_y
_atom_site_fract_z
C1  1.618507311962E-01 -3.888120211050E-01  4.863717075269E-01
C2 -1.618507311962E-01  1.111879788950E-01  1.362829247305E-02
C3 -1.618507311962E-01  3.888120211050E-01 -4.863717075269E-01
C4  1.618507311962E-01 -1.111879788950E-01 -1.362829247306E-02
H5  1.790732659415E-01 -2.857923434435E-01 -4.083145634031E-01
H6 -1.790732659415E-01  2.142076565565E-01 -9.168543659688E-02
H7 -1.790732659415E-01  2.857923434435E-01  4.083145634031E-01
H8  1.790732659415E-01 -2.142076565565E-01  9.168543659688E-02
C9  8.883761718017E-02 -3.848942674048E-01  4.097582152213E-01
C10 -8.883761718017E-02  1.151057325952E-01  9.024178477869E-02
C11 -8.883761718017E-02  3.848942674048E-01 -4.097582152213E-01
C12  8.883761718017E-02 -1.151057325952E-01 -9.024178477869E-02
H13  4.921376429423E-02 -2.881672934199E-01  4.765192787370E-01
H14 -4.921376429423E-02  2.118327065801E-01  2.348072126300E-02
H15 -4.921376429423E-02  2.881672934199E-01 -4.765192787370E-01
H16  4.921376429423E-02 -2.118327065801E-01 -2.348072126300E-02
C17  6.700220985251E-02  4.974599707538E-01  2.534100205864E-01
C18 -6.700220985251E-02 -2.540029246214E-03  2.465899794136E-01
C19 -6.700220985251E-02 -4.974599707538E-01 -2.534100205864E-01
C20  6.700220985251E-02  2.540029246214E-03 -2.465899794136E-01
H21  9.620125630003E-03  4.950933086374E-01  1.935666144369E-01
H22 -9.620125630003E-03 -4.906691362564E-03  3.064333855631E-01
H23 -9.620125630003E-03 -4.950933086374E-01 -1.935666144369E-01
H24  9.620125630003E-03  4.906691362564E-03 -3.064333855631E-01
C25  1.195781869333E-01  3.838753213764E-01  1.691900605067E-01
C26 -1.195781869333E-01 -1.161246786236E-01  3.308099394933E-01
C27 -1.195781869333E-01 -3.838753213764E-01 -1.691900605067E-01
C28  1.195781869333E-01  1.161246786236E-01 -3.308099394933E-01
H29  1.012295189863E-01  2.721442947458E-01  6.660488185039E-02
H30 -1.012295189863E-01 -2.278557052542E-01  4.333951181496E-01
H31 -1.012295189863E-01 -2.721442947458E-01 -6.660488185039E-02
H32  1.012295189863E-01  2.278557052542E-01 -4.333951181496E-01
C33  1.918594039887E-01  3.771508449621E-01  2.513659556995E-01
C34 -1.918594039887E-01 -1.228491550379E-01  2.486340443005E-01
C35 -1.918594039887E-01 -3.771508449621E-01 -2.513659556995E-01
C36  1.918594039887E-01  1.228491550379E-01 -2.486340443005E-01
H37  2.276554784879E-01  2.720241353457E-01  2.108196155777E-01
H38 -2.276554784879E-01 -2.279758646543E-01  2.891803844223E-01
H39 -2.276554784879E-01 -2.720241353457E-01 -2.108196155777E-01
H40  2.276554784879E-01  2.279758646543E-01 -2.891803844223E-01
C41  2.146590961141E-01  4.958871841988E-01  4.054557809552E-01
C42 -2.146590961141E-01 -4.112815801205E-03  9.454421904484E-02
C43 -2.146590961141E-01 -4.958871841988E-01 -4.054557809552E-01
C44  2.146590961141E-01  4.112815801205E-03 -9.454421904484E-02
C45  2.918294642064E-01  4.969971869942E-01  4.862587577615E-01
C46 -2.918294642064E-01 -3.002813005774E-03  1.374124223851E-02
C47 -2.918294642064E-01 -4.969971869942E-01 -4.862587577615E-01
C48  2.918294642064E-01  3.002813005774E-03 -1.374124223851E-02
C49  3.056199779132E-01 -4.511394964380E-01 -2.953646349830E-01
C50 -3.056199779132E-01  4.886050356201E-02 -2.046353650170E-01
C51 -3.056199779132E-01  4.511394964380E-01  2.953646349830E-01
C52  3.056199779132E-01 -4.886050356201E-02  2.046353650170E-01
H53  2.592884659217E-01 -4.301159957857E-01 -1.871054621729E-01
H54 -2.592884659217E-01  6.988400421434E-02 -3.128945378271E-01
H55 -2.592884659217E-01  4.301159957857E-01  1.871054621729E-01
H56  2.592884659217E-01 -6.988400421434E-02  3.128945378271E-01
C57  3.767246504786E-01 -4.242010082230E-01 -2.257865895440E-01
C58 -3.767246504786E-01  7.579899177697E-02 -2.742134104560E-01
C59 -3.767246504786E-01  4.242010082230E-01  2.257865895440E-01
C60  3.767246504786E-01 -7.579899177697E-02  2.742134104560E-01
H61  3.869903844758E-01 -3.834057126106E-01 -5.953823115047E-02
H62 -3.869903844758E-01  1.165942873894E-01 -4.404617688495E-01
H63 -3.869903844758E-01  3.834057126106E-01  5.953823115047E-02
H64  3.869903844758E-01 -1.165942873894E-01  4.404617688495E-01
C65  4.396743788796E-01 -4.608535534993E-01 -3.616573567355E-01
C66 -4.396743788796E-01  3.914644650070E-02 -1.383426432645E-01
C67 -4.396743788796E-01  4.608535534993E-01  3.616573567355E-01
C68  4.396743788796E-01 -3.914644650070E-02  1.383426432645E-01
C69  4.263067958328E-01  4.697133116205E-01  4.278520131857E-01
C70 -4.263067958328E-01 -3.028668837945E-02  7.214798681434E-02
C71 -4.263067958328E-01 -4.697133116205E-01 -4.278520131857E-01
C72  4.263067958328E-01  3.028668837945E-02 -7.214798681434E-02
C73  3.511481877920E-01  4.518131849147E-01  3.566108972436E-01
C74 -3.511481877920E-01 -4.818681508532E-02  1.433891027564E-01
C75 -3.511481877920E-01 -4.518131849147E-01 -3.566108972436E-01
C76  3.511481877920E-01  4.818681508531E-02 -1.433891027564E-01
H77  3.421930687104E-01  4.144139260749E-01  1.881880816230E-01
H78 -3.421930687104E-01 -8.558607392506E-02  3.118119183770E-01
H79 -3.421930687104E-01 -4.144139260749E-01 -1.881880816230E-01
H80  3.421930687104E-01  8.558607392506E-02 -3.118119183770E-01
C81 -4.871428398339E-01 -4.313422834785E-01 -2.937577290313E-01
C82  4.871428398339E-01  6.865771652154E-02 -2.062422709687E-01
C83  4.871428398339E-01  4.313422834785E-01  2.937577290313E-01
C84 -4.871428398339E-01 -6.865771652154E-02  2.062422709687E-01
H85 -4.773489998698E-01 -3.694815819100E-01 -1.408263420334E-01
H86  4.773489998698E-01  1.305184180900E-01 -3.591736579666E-01
H87  4.773489998698E-01  3.694815819100E-01  1.408263420334E-01
H88 -4.773489998698E-01 -1.305184180900E-01  3.591736579666E-01


#===END

data_OPT_STEP_12

_symmetry_space_group_name_H-M 'P 1'
_cell_length_a     18.11712385
_cell_length_b      7.95648667
_cell_length_c      6.27385097
_cell_angle_alpha   90.000000
_cell_angle_beta   89.366038
_cell_angle_gamma   90.000000

loop_
_atom_site_label
_atom_site_fract_x
_atom_site_fract_y
_atom_site_fract_z
C1  1.633737042988E-01 -3.718484096062E-01  4.739605011511E-01
C2 -1.633737042988E-01  1.281515903938E-01  2.603949884890E-02
C3 -1.633737042988E-01  3.718484096062E-01 -4.739605011511E-01
C4  1.633737042988E-01 -1.281515903938E-01 -2.603949884890E-02
H5  1.823186175130E-01 -2.579833491748E-01 -4.305091846607E-01
H6 -1.823186175130E-01  2.420166508252E-01 -6.949081533928E-02
H7 -1.823186175130E-01  2.579833491748E-01  4.305091846607E-01
H8  1.823186175130E-01 -2.420166508252E-01  6.949081533928E-02
C9  8.904013672488E-02 -3.808468760499E-01  4.091555282532E-01
C10 -8.904013672488E-02  1.191531239501E-01  9.084447174675E-02
C11 -8.904013672488E-02  3.808468760499E-01 -4.091555282532E-01
C12  8.904013672488E-02 -1.191531239501E-01 -9.084447174675E-02
H13  4.940949991981E-02 -2.784466621256E-01  4.723475559357E-01
H14 -4.940949991981E-02  2.215533378744E-01  2.765244406431E-02
H15 -4.940949991981E-02  2.784466621256E-01 -4.723475559357E-01
H16  4.940949991981E-02 -2.215533378744E-01 -2.765244406431E-02
C17  6.631359995779E-02  4.960110839582E-01  2.608344709918E-01
C18 -6.631359995779E-02 -3.988916041785E-03  2.391655290082E-01
C19 -6.631359995779E-02 -4.960110839582E-01 -2.608344709918E-01
C20  6.631359995779E-02  3.988916041784E-03 -2.391655290082E-01
H21  7.943888266177E-03  4.949428863512E-01  1.988336578090E-01
H22 -7.943888266177E-03 -5.057113648849E-03  3.011663421910E-01
H23 -7.943888266177E-03 -4.949428863512E-01 -1.988336578090E-01
H24  7.943888266177E-03  5.057113648849E-03 -3.011663421910E-01
C25  1.178951700003E-01  3.747878145353E-01  1.866367450575E-01
C26 -1.178951700003E-01 -1.252121854647E-01  3.133632549425E-01
C27 -1.178951700003E-01 -3.747878145353E-01 -1.866367450575E-01
C28  1.178951700003E-01  1.252121854647E-01 -3.133632549425E-01
H29  1.018611032984E-01  2.890014752990E-01  6.053708859296E-02
H30 -1.018611032984E-01 -2.109985247010E-01  4.394629114070E-01
H31 -1.018611032984E-01 -2.890014752990E-01 -6.053708859296E-02
H32  1.018611032984E-01  2.109985247010E-01 -4.394629114070E-01
C33  1.902968567142E-01  3.697411392292E-01  2.679465823533E-01
C34 -1.902968567142E-01 -1.302588607708E-01  2.320534176467E-01
C35 -1.902968567142E-01 -3.697411392292E-01 -2.679465823533E-01
C36  1.902968567142E-01  1.302588607708E-01 -2.320534176467E-01
H37  2.265821177599E-01  2.629945757518E-01  2.303335470373E-01
H38 -2.265821177599E-01 -2.370054242482E-01  2.696664529627E-01
H39 -2.265821177599E-01 -2.629945757518E-01 -2.303335470373E-01
H40  2.265821177599E-01  2.370054242482E-01 -2.696664529627E-01
C41  2.141252037197E-01  4.963291467747E-01  4.116496359130E-01
C42 -2.141252037197E-01 -3.670853225265E-03  8.835036408700E-02
C43 -2.141252037197E-01 -4.963291467747E-01 -4.116496359130E-01
C44  2.141252037197E-01  3.670853225265E-03 -8.835036408700E-02
C45  2.917336191041E-01 -4.974898402814E-01  4.888954678841E-01
C46 -2.917336191041E-01  2.510159718621E-03  1.110453211589E-02
C47 -2.917336191041E-01  4.974898402814E-01 -4.888954678841E-01
C48  2.917336191041E-01 -2.510159718621E-03 -1.110453211589E-02
C49  3.060561364189E-01 -4.365527070887E-01 -2.969967236034E-01
C50 -3.060561364189E-01  6.344729291125E-02 -2.030032763966E-01
C51 -3.060561364189E-01  4.365527070887E-01  2.969967236034E-01
C52  3.060561364189E-01 -6.344729291125E-02  2.030032763966E-01
H53  2.589632160380E-01 -3.986147399407E-01 -1.930565460445E-01
H54 -2.589632160380E-01  1.013852600593E-01 -3.069434539555E-01
H55 -2.589632160380E-01  3.986147399407E-01  1.930565460445E-01
H56  2.589632160380E-01 -1.013852600593E-01  3.069434539555E-01
C57  3.772228034061E-01 -4.208487535231E-01 -2.245212251340E-01
C58 -3.772228034061E-01  7.915124647686E-02 -2.754787748660E-01
C59 -3.772228034061E-01  4.208487535231E-01  2.245212251340E-01
C60  3.772228034061E-01 -7.915124647686E-02  2.754787748660E-01
H61  3.879547495937E-01 -3.781692694884E-01 -5.603352172480E-02
H62 -3.879547495937E-01  1.218307305116E-01 -4.439664782752E-01
H63 -3.879547495937E-01  3.781692694884E-01  5.603352172480E-02
H64  3.879547495937E-01 -1.218307305116E-01  4.439664782752E-01
C65  4.399191533261E-01 -4.587935231503E-01 -3.609911444420E-01
C66 -4.399191533261E-01  4.120647684966E-02 -1.390088555580E-01
C67 -4.399191533261E-01  4.587935231503E-01  3.609911444420E-01
C68  4.399191533261E-01 -4.120647684966E-02  1.390088555580E-01
C69  4.261488516520E-01  4.767910656018E-01  4.268245667684E-01
C70 -4.261488516520E-01 -2.320893439819E-02  7.317543323160E-02
C71 -4.261488516520E-01 -4.767910656018E-01 -4.268245667684E-01
C72  4.261488516520E-01  2.320893439819E-02 -7.317543323160E-02
C73  3.508344093873E-01  4.606078323703E-01  3.568017779554E-01
C74 -3.508344093873E-01 -3.939216762974E-02  1.431982220446E-01
C75 -3.508344093873E-01 -4.606078323703E-01 -3.568017779554E-01
C76  3.508344093873E-01  3.939216762974E-02 -1.431982220446E-01
H77  3.416281415500E-01  4.229994914083E-01  1.855618811324E-01
H78 -3.416281415500E-01 -7.700050859175E-02  3.144381188676E-01
H79 -3.416281415500E-01 -4.229994914083E-01 -1.855618811324E-01
H80  3.416281415500E-01  7.700050859175E-02 -3.144381188676E-01
C81 -4.867075852254E-01 -4.335621721321E-01 -2.932292753880E-01
C82  4.867075852254E-01  6.643782786795E-02 -2.067707246120E-01
C83  4.867075852254E-01  4.335621721321E-01  2.932292753880E-01
C84 -4.867075852254E-01 -6.643782786795E-02  2.067707246120E-01
H85 -4.762712946420E-01 -3.813045420531E-01 -1.329055475274E-01
H86  4.762712946420E-01  1.186954579469E-01 -3.670944524726E-01
H87  4.762712946420E-01  3.813045420531E-01  1.329055475274E-01
H88 -4.762712946420E-01 -1.186954579469E-01  3.670944524726E-01


#===END

data_OPT_STEP_13

_symmetry_space_group_name_H-M 'P 1'
_cell_length_a     18.11601985
_cell_length_b      7.90324410
_cell_length_c      6.26096159
_cell_angle_alpha   90.000000
_cell_angle_beta   89.419076
_cell_angle_gamma   90.000000

loop_
_atom_site_label
_atom_site_fract_x
_atom_site_fract_y
_atom_site_fract_z
C1  1.624876762041E-01 -3.844368893547E-01  4.823977293127E-01
C2 -1.624876762041E-01  1.155631106453E-01  1.760227068727E-02
C3 -1.624876762041E-01  3.844368893547E-01 -4.823977293127E-01
C4  1.624876762041E-01 -1.155631106453E-01 -1.760227068727E-02
H5  1.801079974040E-01 -2.800562378139E-01 -4.131365625752E-01
H6 -1.801079974040E-01  2.199437621861E-01 -8.686343742485E-02
H7 -1.801079974040E-01  2.800562378139E-01  4.131365625752E-01
H8  1.801079974040E-01 -2.199437621861E-01  8.686343742485E-02
C9  8.906932123582E-02 -3.844389182788E-01  4.095919073462E-01
C10 -8.906932123582E-02  1.155610817212E-01  9.040809265383E-02
C11 -8.906932123582E-02  3.844389182788E-01 -4.095919073462E-01
C12  8.906932123582E-02 -1.155610817212E-01 -9.040809265383E-02
H13  4.945669812959E-02 -2.855816653905E-01  4.753073560370E-01
H14 -4.945669812959E-02  2.144183346095E-01  2.469264396305E-02
H15 -4.945669812959E-02  2.855816653905E-01 -4.753073560370E-01
H16  4.945669812959E-02 -2.144183346095E-01 -2.469264396305E-02
C17  6.687684065802E-02  4.964687197061E-01  2.554871135234E-01
C18 -6.687684065802E-02 -3.531280293946E-03  2.445128864766E-01
C19 -6.687684065802E-02 -4.964687197061E-01 -2.554871135234E-01
C20  6.687684065802E-02  3.531280293946E-03 -2.445128864766E-01
H21  9.076599786980E-03  4.947229453901E-01  1.951115827287E-01
H22 -9.076599786980E-03 -5.277054609859E-03  3.048884172713E-01
H23 -9.076599786980E-03 -4.947229453901E-01 -1.951115827287E-01
H24  9.076599786980E-03  5.277054609859E-03 -3.048884172713E-01
C25  1.189197650762E-01  3.791442387115E-01  1.751886656341E-01
C26 -1.189197650762E-01 -1.208557612885E-01  3.248113343659E-01
C27 -1.189197650762E-01 -3.791442387115E-01 -1.751886656341E-01
C28  1.189197650762E-01  1.208557612885E-01 -3.248113343659E-01
H29  1.013906680863E-01  2.774393793608E-01  6.340414532062E-02
H30 -1.013906680863E-01 -2.225606206392E-01  4.365958546794E-01
H31 -1.013906680863E-01 -2.774393793608E-01 -6.340414532062E-02
H32  1.013906680863E-01  2.225606206392E-01 -4.365958546794E-01
C33  1.913920870520E-01  3.740566651248E-01  2.557630164383E-01
C34 -1.913920870520E-01 -1.259433348752E-01  2.442369835617E-01
C35 -1.913920870520E-01 -3.740566651248E-01 -2.557630164383E-01
C36  1.913920870520E-01  1.259433348752E-01 -2.442369835617E-01
H37  2.273525484471E-01  2.683374805274E-01  2.158064617365E-01
H38 -2.273525484471E-01 -2.316625194726E-01  2.841935382635E-01
H39 -2.273525484471E-01 -2.683374805274E-01 -2.158064617365E-01
H40  2.273525484471E-01  2.316625194726E-01 -2.841935382635E-01
C41  2.145926509841E-01  4.950703104410E-01  4.068712357822E-01
C42 -2.145926509841E-01 -4.929689559012E-03  9.312876421780E-02
C43 -2.145926509841E-01 -4.950703104410E-01 -4.068712357822E-01
C44  2.145926509841E-01  4.929689559012E-03 -9.312876421780E-02
C45  2.918438131268E-01  4.970441440453E-01  4.870683625097E-01
C46 -2.918438131268E-01 -2.955855954725E-03  1.293163749029E-02
C47 -2.918438131268E-01 -4.970441440453E-01 -4.870683625097E-01
C48  2.918438131268E-01  2.955855954725E-03 -1.293163749029E-02
C49  3.056922345312E-01 -4.486625934384E-01 -2.955473629793E-01
C50 -3.056922345312E-01  5.133740656159E-02 -2.044526370207E-01
C51 -3.056922345312E-01  4.486625934384E-01  2.955473629793E-01
C52  3.056922345312E-01 -5.133740656159E-02  2.044526370207E-01
H53  2.589819648880E-01 -4.239163078755E-01 -1.879252491162E-01
H54 -2.589819648880E-01  7.608369212451E-02 -3.120747508838E-01
H55 -2.589819648880E-01  4.239163078755E-01  1.879252491162E-01
H56  2.589819648880E-01 -7.608369212451E-02  3.120747508838E-01
C57  3.767656622523E-01 -4.245126802087E-01 -2.250804768729E-01
C58 -3.767656622523E-01  7.548731979130E-02 -2.749195231271E-01
C59 -3.767656622523E-01  4.245126802087E-01  2.250804768729E-01
C60  3.767656622523E-01 -7.548731979130E-02  2.749195231271E-01
H61  3.871172543370E-01 -3.827413054177E-01 -5.790309541951E-02
H62 -3.871172543370E-01  1.172586945823E-01 -4.420969045805E-01
H63 -3.871172543370E-01  3.827413054177E-01  5.790309541951E-02
H64  3.871172543370E-01 -1.172586945823E-01  4.420969045805E-01
C65  4.396877815598E-01 -4.601149783833E-01 -3.615971739797E-01
C66 -4.396877815598E-01  3.988502161665E-02 -1.384028260203E-01
C67 -4.396877815598E-01  4.601149783833E-01  3.615971739797E-01
C68  4.396877815598E-01 -3.988502161665E-02  1.384028260203E-01
C69  4.263202835223E-01  4.711722331287E-01  4.275708393304E-01
C70 -4.263202835223E-01 -2.882776687132E-02  7.242916066964E-02
C71 -4.263202835223E-01 -4.711722331287E-01 -4.275708393304E-01
C72  4.263202835223E-01  2.882776687132E-02 -7.242916066964E-02
C73  3.511562530412E-01  4.532603810694E-01  3.566339067545E-01
C74 -3.511562530412E-01 -4.673961893065E-02  1.433660932455E-01
C75 -3.511562530412E-01 -4.532603810694E-01 -3.566339067545E-01
C76  3.511562530412E-01  4.673961893065E-02 -1.433660932455E-01
H77  3.422045921895E-01  4.155480089040E-01  1.870474871753E-01
H78 -3.422045921895E-01 -8.445199109598E-02  3.129525128247E-01
H79 -3.422045921895E-01 -4.155480089040E-01 -1.870474871753E-01
H80  3.422045921895E-01  8.445199109598E-02 -3.129525128247E-01
C81 -4.871349656325E-01 -4.305669334590E-01 -2.940609406173E-01
C82  4.871349656325E-01  6.943306654102E-02 -2.059390593827E-01
C83  4.871349656325E-01  4.305669334590E-01  2.940609406173E-01
C84 -4.871349656325E-01 -6.943306654102E-02  2.059390593827E-01
H85 -4.772034790198E-01 -3.714352626293E-01 -1.384960805706E-01
H86  4.772034790198E-01  1.285647373707E-01 -3.615039194294E-01
H87  4.772034790198E-01  3.714352626293E-01  1.384960805706E-01
H88 -4.772034790198E-01 -1.285647373707E-01  3.615039194294E-01


#===END

data_OPT_STEP_14

_symmetry_space_group_name_H-M 'P 1'
_cell_length_a     18.12172558
_cell_length_b      7.88409094
_cell_length_c      6.27502520
_cell_angle_alpha   90.000000
_cell_angle_beta   89.430059
_cell_angle_gamma   90.000000

loop_
_atom_site_label
_atom_site_fract_x
_atom_site_fract_y
_atom_site_fract_z
C1  1.622638046124E-01 -3.826660931294E-01  4.814720533778E-01
C2 -1.622638046124E-01  1.173339068706E-01  1.852794662215E-02
C3 -1.622638046124E-01  3.826660931294E-01 -4.814720533778E-01
C4  1.622638046124E-01 -1.173339068706E-01 -1.852794662215E-02
H5  1.792015102047E-01 -2.831957874244E-01 -4.088359031025E-01
H6 -1.792015102047E-01  2.168042125756E-01 -9.116409689751E-02
H7 -1.792015102047E-01  2.831957874244E-01  4.088359031025E-01
H8  1.792015102047E-01 -2.168042125756E-01  9.116409689751E-02
C9  8.913159599912E-02 -3.826874918075E-01  4.073591885100E-01
C10 -8.913159599912E-02  1.173125081925E-01  9.264081149004E-02
C11 -8.913159599912E-02  3.826874918075E-01 -4.073591885100E-01
C12  8.913159599912E-02 -1.173125081925E-01 -9.264081149004E-02
H13  4.916583060587E-02 -2.851956393172E-01  4.727632832284E-01
H14 -4.916583060587E-02  2.148043606828E-01  2.723671677158E-02
H15 -4.916583060587E-02  2.851956393172E-01 -4.727632832284E-01
H16  4.916583060587E-02 -2.148043606828E-01 -2.723671677158E-02
C17  6.708242768211E-02  4.976131021548E-01  2.544226240577E-01
C18 -6.708242768211E-02 -2.386897845180E-03  2.455773759423E-01
C19 -6.708242768211E-02 -4.976131021548E-01 -2.544226240577E-01
C20  6.708242768211E-02  2.386897845180E-03 -2.455773759423E-01
H21  9.137149005960E-03  4.954159869963E-01  1.946994059309E-01
H22 -9.137149005960E-03 -4.584013003655E-03  3.053005940691E-01
H23 -9.137149005960E-03 -4.954159869963E-01 -1.946994059309E-01
H24  9.137149005960E-03  4.584013003655E-03 -3.053005940691E-01
C25  1.188845066318E-01  3.782205346739E-01  1.772700485945E-01
C26 -1.188845066318E-01 -1.217794653261E-01  3.227299514055E-01
C27 -1.188845066318E-01 -3.782205346739E-01 -1.772700485945E-01
C28  1.188845066318E-01  1.217794653261E-01 -3.227299514055E-01
H29  1.014704567654E-01  2.770120088749E-01  6.492860098760E-02
H30 -1.014704567654E-01 -2.229879911251E-01  4.350713990124E-01
H31 -1.014704567654E-01 -2.770120088749E-01 -6.492860098760E-02
H32  1.014704567654E-01  2.229879911251E-01 -4.350713990124E-01
C33  1.916328423042E-01  3.775031378004E-01  2.547859419473E-01
C34 -1.916328423042E-01 -1.224968621996E-01  2.452140580527E-01
C35 -1.916328423042E-01 -3.775031378004E-01 -2.547859419473E-01
C36  1.916328423042E-01  1.224968621996E-01 -2.452140580527E-01
H37  2.279213031459E-01  2.718082592215E-01  2.149249132460E-01
H38 -2.279213031459E-01 -2.281917407785E-01  2.850750867540E-01
H39 -2.279213031459E-01 -2.718082592215E-01 -2.149249132460E-01
H40  2.279213031459E-01  2.281917407785E-01 -2.850750867540E-01
C41  2.146243374628E-01  4.985521113644E-01  4.056209920666E-01
C42 -2.146243374628E-01 -1.447888635614E-03  9.437900793338E-02
C43 -2.146243374628E-01 -4.985521113644E-01 -4.056209920666E-01
C44  2.146243374628E-01  1.447888635614E-03 -9.437900793338E-02
C45  2.919630434504E-01 -4.977044612251E-01  4.852788528775E-01
C46 -2.919630434504E-01  2.295538774858E-03  1.472114712251E-02
C47 -2.919630434504E-01  4.977044612251E-01 -4.852788528775E-01
C48  2.919630434504E-01 -2.295538774858E-03 -1.472114712251E-02
C49  3.058657735456E-01 -4.424187772718E-01 -2.981620173990E-01
C50 -3.058657735456E-01  5.758122272821E-02 -2.018379826010E-01
C51 -3.058657735456E-01  4.424187772718E-01  2.981620173990E-01
C52  3.058657735456E-01 -5.758122272821E-02  2.018379826010E-01
H53  2.589123538388E-01 -4.200594442086E-01 -1.892357752716E-01
H54 -2.589123538388E-01  7.994055579138E-02 -3.107642247284E-01
H55 -2.589123538388E-01  4.200594442086E-01  1.892357752716E-01
H56  2.589123538388E-01 -7.994055579138E-02  3.107642247284E-01
C57  3.768784014987E-01 -4.219691560177E-01 -2.262452334564E-01
C58 -3.768784014987E-01  7.803084398235E-02 -2.737547665436E-01
C59 -3.768784014987E-01  4.219691560177E-01  2.262452334564E-01
C60  3.768784014987E-01 -7.803084398235E-02  2.737547665436E-01
H61  3.871257647640E-01 -3.787800377100E-01 -5.952359742758E-02
H62 -3.871257647640E-01  1.212199622900E-01 -4.404764025724E-01
H63 -3.871257647640E-01  3.787800377100E-01  5.952359742758E-02
H64  3.871257647640E-01 -1.212199622900E-01  4.404764025724E-01
C65  4.397404430670E-01 -4.584444243673E-01 -3.621515720874E-01
C66 -4.397404430670E-01  4.155557563270E-02 -1.378484279126E-01
C67 -4.397404430670E-01  4.584444243673E-01  3.621515720874E-01
C68  4.397404430670E-01 -4.155557563270E-02  1.378484279126E-01
C69  4.263391920369E-01  4.747609093980E-01  4.264024259330E-01
C70 -4.263391920369E-01 -2.523909060201E-02  7.359757406698E-02
C71 -4.263391920369E-01 -4.747609093980E-01 -4.264024259330E-01
C72  4.263391920369E-01  2.523909060201E-02 -7.359757406698E-02
C73  3.512247042189E-01  4.577551068370E-01  3.553953974559E-01
C74 -3.512247042189E-01 -4.224489316302E-02  1.446046025441E-01
C75 -3.512247042189E-01 -4.577551068370E-01 -3.553953974559E-01
C76  3.512247042189E-01  4.224489316302E-02 -1.446046025441E-01
H77  3.422642681136E-01  4.187209275306E-01  1.863677829368E-01
H78 -3.422642681136E-01 -8.127907246936E-02  3.136322170632E-01
H79 -3.422642681136E-01 -4.187209275306E-01 -1.863677829368E-01
H80  3.422642681136E-01  8.127907246936E-02 -3.136322170632E-01
C81 -4.870883920745E-01 -4.329098548058E-01 -2.933024923788E-01
C82  4.870883920745E-01  6.709014519422E-02 -2.066975076212E-01
C83  4.870883920745E-01  4.329098548058E-01  2.933024923788E-01
C84 -4.870883920745E-01 -6.709014519422E-02  2.066975076212E-01
H85 -4.770670132914E-01 -3.772624029797E-01 -1.354449443152E-01
H86  4.770670132914E-01  1.227375970203E-01 -3.645550556848E-01
H87  4.770670132914E-01  3.772624029797E-01  1.354449443152E-01
H88 -4.770670132914E-01 -1.227375970203E-01  3.645550556848E-01


#===END

data_OPT_STEP_15

_symmetry_space_group_name_H-M 'P 1'
_cell_length_a     18.11144818
_cell_length_b      7.87127871
_cell_length_c      6.28291401
_cell_angle_alpha   90.000000
_cell_angle_beta   89.336164
_cell_angle_gamma   90.000000

loop_
_atom_site_label
_atom_site_fract_x
_atom_site_fract_y
_atom_site_fract_z
C1  1.623860094557E-01 -3.770976939400E-01  4.770502742810E-01
C2 -1.623860094557E-01  1.229023060600E-01  2.294972571902E-02
C3 -1.623860094557E-01  3.770976939400E-01 -4.770502742810E-01
C4  1.623860094557E-01 -1.229023060600E-01 -2.294972571902E-02
H5  1.794237472621E-01 -2.749349481251E-01 -4.146556535566E-01
H6 -1.794237472621E-01  2.250650518749E-01 -8.534434644344E-02
H7 -1.794237472621E-01  2.749349481251E-01  4.146556535566E-01
H8  1.794237472621E-01 -2.250650518749E-01  8.534434644344E-02
C9  8.928866289580E-02 -3.798552929207E-01  4.039896940202E-01
C10 -8.928866289580E-02  1.201447070793E-01  9.601030597985E-02
C11 -8.928866289580E-02  3.798552929207E-01 -4.039896940202E-01
C12  8.928866289580E-02 -1.201447070793E-01 -9.601030597985E-02
H13  4.887187120111E-02 -2.849264005793E-01  4.690976225758E-01
H14 -4.887187120111E-02  2.150735994207E-01  3.090237742415E-02
H15 -4.887187120111E-02  2.849264005793E-01 -4.690976225758E-01
H16  4.887187120111E-02 -2.150735994207E-01 -3.090237742415E-02
C17  6.724458652239E-02  4.981577088473E-01  2.539951198400E-01
C18 -6.724458652239E-02 -1.842291152692E-03  2.460048801600E-01
C19 -6.724458652239E-02 -4.981577088473E-01 -2.539951198400E-01
C20  6.724458652239E-02  1.842291152691E-03 -2.460048801600E-01
H21  9.238253694613E-03  4.956520883840E-01  1.952563439602E-01
H22 -9.238253694613E-03 -4.347911615990E-03  3.047436560398E-01
H23 -9.238253694613E-03 -4.956520883840E-01 -1.952563439602E-01
H24  9.238253694613E-03  4.347911615989E-03 -3.047436560398E-01
C25  1.188719376591E-01  3.777821462827E-01  1.792631372750E-01
C26 -1.188719376591E-01 -1.222178537173E-01  3.207368627250E-01
C27 -1.188719376591E-01 -3.777821462827E-01 -1.792631372750E-01
C28  1.188719376591E-01  1.222178537173E-01 -3.207368627250E-01
H29  1.016500257901E-01  2.778845232569E-01  6.575824413102E-02
H30 -1.016500257901E-01 -2.221154767431E-01  4.342417558690E-01
H31 -1.016500257901E-01 -2.778845232569E-01 -6.575824413102E-02
H32  1.016500257901E-01  2.221154767431E-01 -4.342417558690E-01
C33  1.913707775287E-01  3.763006518594E-01  2.579186652618E-01
C34 -1.913707775287E-01 -1.236993481406E-01  2.420813347382E-01
C35 -1.913707775287E-01 -3.763006518594E-01 -2.579186652618E-01
C36  1.913707775287E-01  1.236993481406E-01 -2.420813347382E-01
H37  2.283028091074E-01  2.716239979377E-01  2.164669330646E-01
H38 -2.283028091074E-01 -2.283760020623E-01  2.835330669354E-01
H39 -2.283028091074E-01 -2.716239979377E-01 -2.164669330646E-01
H40  2.283028091074E-01  2.283760020623E-01 -2.835330669354E-01
C41  2.143954545733E-01  4.997334991180E-01  4.064878716618E-01
C42 -2.143954545733E-01 -2.665008819600E-04  9.351212833825E-02
C43 -2.143954545733E-01 -4.997334991180E-01 -4.064878716618E-01
C44  2.143954545733E-01  2.665008819598E-04 -9.351212833825E-02
C45  2.918971323413E-01 -4.953902571014E-01  4.858956969181E-01
C46 -2.918971323413E-01  4.609742898590E-03  1.410430308192E-02
C47 -2.918971323413E-01  4.953902571014E-01 -4.858956969181E-01
C48  2.918971323413E-01 -4.609742898590E-03 -1.410430308192E-02
C49  3.059345957660E-01 -4.384321096155E-01 -2.986503449502E-01
C50 -3.059345957660E-01  6.156789038447E-02 -2.013496550498E-01
C51 -3.059345957660E-01  4.384321096155E-01  2.986503449502E-01
C52  3.059345957660E-01 -6.156789038447E-02  2.013496550498E-01
H53  2.587100412210E-01 -4.155020030547E-01 -1.891289841818E-01
H54 -2.587100412210E-01  8.449799694526E-02 -3.108710158182E-01
H55 -2.587100412210E-01  4.155020030547E-01  1.891289841818E-01
H56  2.587100412210E-01 -8.449799694526E-02  3.108710158182E-01
C57  3.769495075504E-01 -4.193210608440E-01 -2.264233084795E-01
C58 -3.769495075504E-01  8.067893915604E-02 -2.735766915205E-01
C59 -3.769495075504E-01  4.193210608440E-01  2.264233084795E-01
C60  3.769495075504E-01 -8.067893915604E-02  2.735766915205E-01
H61  3.868944905693E-01 -3.746139252884E-01 -6.040309124448E-02
H62 -3.868944905693E-01  1.253860747116E-01 -4.395969087555E-01
H63 -3.868944905693E-01  3.746139252884E-01  6.040309124448E-02
H64  3.868944905693E-01 -1.253860747116E-01  4.395969087555E-01
C65  4.397903688830E-01 -4.584490758634E-01 -3.613127940261E-01
C66 -4.397903688830E-01  4.155092413659E-02 -1.386872059739E-01
C67 -4.397903688830E-01  4.584490758634E-01  3.613127940261E-01
C68  4.397903688830E-01 -4.155092413659E-02  1.386872059739E-01
C69  4.263103009786E-01  4.755512169406E-01  4.269955814370E-01
C70 -4.263103009786E-01 -2.444878305938E-02  7.300441856297E-02
C71 -4.263103009786E-01 -4.755512169406E-01 -4.269955814370E-01
C72  4.263103009786E-01  2.444878305938E-02 -7.300441856297E-02
C73  3.512133597303E-01  4.595846352737E-01  3.562050954578E-01
C74 -3.512133597303E-01 -4.041536472627E-02  1.437949045422E-01
C75 -3.512133597303E-01 -4.595846352737E-01 -3.562050954578E-01
C76  3.512133597303E-01  4.041536472627E-02 -1.437949045422E-01
H77  3.422950865788E-01  4.189446956212E-01  1.881256941482E-01
H78 -3.422950865788E-01 -8.105530437877E-02  3.118743058518E-01
H79 -3.422950865788E-01 -4.189446956212E-01 -1.881256941482E-01
H80  3.422950865788E-01  8.105530437877E-02 -3.118743058518E-01
C81 -4.870009064169E-01 -4.350880193941E-01 -2.925857211860E-01
C82  4.870009064169E-01  6.491198060593E-02 -2.074142788140E-01
C83  4.870009064169E-01  4.350880193941E-01  2.925857211860E-01
C84 -4.870009064169E-01 -6.491198060593E-02  2.074142788140E-01
H85 -4.768750987725E-01 -3.830191315158E-01 -1.320524670678E-01
H86  4.768750987725E-01  1.169808684842E-01 -3.679475329322E-01
H87  4.768750987725E-01  3.830191315158E-01  1.320524670678E-01
H88 -4.768750987725E-01 -1.169808684842E-01  3.679475329322E-01


#===END

data_OPT_STEP_16

_symmetry_space_group_name_H-M 'P 1'
_cell_length_a     18.09629360
_cell_length_b      7.86180457
_cell_length_c      6.28184098
_cell_angle_alpha   90.000000
_cell_angle_beta   89.214830
_cell_angle_gamma   90.000000

loop_
_atom_site_label
_atom_site_fract_x
_atom_site_fract_y
_atom_site_fract_z
C1  1.619788473875E-01 -3.761041524952E-01  4.770225977878E-01
C2 -1.619788473875E-01  1.238958475048E-01  2.297740221217E-02
C3 -1.619788473875E-01  3.761041524952E-01 -4.770225977878E-01
C4  1.619788473875E-01 -1.238958475048E-01 -2.297740221217E-02
H5  1.790027923218E-01 -2.730960598720E-01 -4.145169561053E-01
H6 -1.790027923218E-01  2.269039401280E-01 -8.548304389473E-02
H7 -1.790027923218E-01  2.730960598720E-01  4.145169561053E-01
H8  1.790027923218E-01 -2.269039401280E-01  8.548304389473E-02
C9  8.891915138910E-02 -3.797567752036E-01  4.042084940646E-01
C10 -8.891915138910E-02  1.202432247964E-01  9.579150593538E-02
C11 -8.891915138910E-02  3.797567752036E-01 -4.042084940646E-01
C12  8.891915138910E-02 -1.202432247964E-01 -9.579150593538E-02
H13  4.837440848693E-02 -2.853371313162E-01  4.683413617047E-01
H14 -4.837440848693E-02  2.146628686838E-01  3.165863829527E-02
H15 -4.837440848693E-02  2.853371313162E-01 -4.683413617047E-01
H16  4.837440848693E-02 -2.146628686838E-01 -3.165863829527E-02
C17  6.692391224917E-02  4.971754519154E-01  2.554557151413E-01
C18 -6.692391224917E-02 -2.824548084576E-03  2.445442848587E-01
C19 -6.692391224917E-02 -4.971754519154E-01 -2.554557151413E-01
C20  6.692391224917E-02  2.824548084576E-03 -2.445442848587E-01
H21  8.980034578848E-03  4.948648794518E-01  1.967884304344E-01
H22 -8.980034578848E-03 -5.135120548166E-03  3.032115695656E-01
H23 -8.980034578848E-03 -4.948648794518E-01 -1.967884304344E-01
H24  8.980034578848E-03  5.135120548166E-03 -3.032115695656E-01
C25  1.183837991441E-01  3.751724217456E-01  1.828026022689E-01
C26 -1.183837991441E-01 -1.248275782544E-01  3.171973977311E-01
C27 -1.183837991441E-01 -3.751724217456E-01 -1.828026022689E-01
C28  1.183837991441E-01  1.248275782544E-01 -3.171973977311E-01
H29  1.012128016525E-01  2.752373015426E-01  6.926462902939E-02
H30 -1.012128016525E-01 -2.247626984574E-01  4.307353709706E-01
H31 -1.012128016525E-01 -2.752373015426E-01 -6.926462902939E-02
H32  1.012128016525E-01  2.247626984574E-01 -4.307353709706E-01
C33  1.910822833561E-01  3.760601220696E-01  2.593790678959E-01
C34 -1.910822833561E-01 -1.239398779304E-01  2.406209321041E-01
C35 -1.910822833561E-01 -3.760601220696E-01 -2.593790678959E-01
C36  1.910822833561E-01  1.239398779304E-01 -2.406209321041E-01
H37  2.285218414042E-01  2.722219657581E-01  2.162414270860E-01
H38 -2.285218414042E-01 -2.277780342419E-01  2.837585729140E-01
H39 -2.285218414042E-01 -2.722219657581E-01 -2.162414270860E-01
H40  2.285218414042E-01  2.277780342419E-01 -2.837585729140E-01
C41  2.141762346246E-01 -4.985514829823E-01  4.062314578139E-01
C42 -2.141762346246E-01  1.448517017736E-03  9.376854218613E-02
C43 -2.141762346246E-01  4.985514829823E-01 -4.062314578139E-01
C44  2.141762346246E-01 -1.448517017737E-03 -9.376854218613E-02
C45  2.917321218312E-01 -4.937279691749E-01  4.859285582958E-01
C46 -2.917321218312E-01  6.272030825053E-03  1.407144170425E-02
C47 -2.917321218312E-01  4.937279691749E-01 -4.859285582958E-01
C48  2.917321218312E-01 -6.272030825053E-03 -1.407144170425E-02
C49  3.057897890026E-01 -4.346240110963E-01 -2.996009884047E-01
C50 -3.057897890026E-01  6.537598890369E-02 -2.003990115953E-01
C51 -3.057897890026E-01  4.346240110963E-01  2.996009884047E-01
C52  3.057897890026E-01 -6.537598890369E-02  2.003990115953E-01
H53  2.583693364513E-01 -4.067106936595E-01 -1.915042738516E-01
H54 -2.583693364513E-01  9.328930634051E-02 -3.084957261484E-01
H55 -2.583693364513E-01  4.067106936595E-01  1.915042738516E-01
H56  2.583693364513E-01 -9.328930634051E-02  3.084957261484E-01
C57  3.768219109799E-01 -4.154579863352E-01 -2.273771601936E-01
C58 -3.768219109799E-01  8.454201366476E-02 -2.726228398064E-01
C59 -3.768219109799E-01  4.154579863352E-01  2.273771601936E-01
C60  3.768219109799E-01 -8.454201366476E-02  2.726228398064E-01
H61  3.864866202886E-01 -3.699280138523E-01 -6.173442217817E-02
H62 -3.864866202886E-01  1.300719861477E-01 -4.382655778218E-01
H63 -3.864866202886E-01  3.699280138523E-01  6.173442217817E-02
H64  3.864866202886E-01 -1.300719861477E-01  4.382655778218E-01
C65  4.397314732494E-01 -4.554456472512E-01 -3.620402014930E-01
C66 -4.397314732494E-01  4.455435274883E-02 -1.379597985070E-01
C67 -4.397314732494E-01  4.554456472512E-01  3.620402014930E-01
C68  4.397314732494E-01 -4.455435274883E-02  1.379597985070E-01
C69  4.262667290925E-01  4.761231890763E-01  4.272858442211E-01
C70 -4.262667290925E-01 -2.387681092369E-02  7.271415577890E-02
C71 -4.262667290925E-01 -4.761231890763E-01 -4.272858442211E-01
C72  4.262667290925E-01  2.387681092369E-02 -7.271415577890E-02
C73  3.511885758921E-01  4.609478336300E-01  3.563187044658E-01
C74 -3.511885758921E-01 -3.905216636995E-02  1.436812955342E-01
C75 -3.511885758921E-01 -4.609478336300E-01 -3.563187044658E-01
C76  3.511885758921E-01  3.905216636995E-02 -1.436812955342E-01
H77  3.423665530744E-01  4.193255035272E-01  1.887830221582E-01
H78 -3.423665530744E-01 -8.067449647278E-02  3.112169778418E-01
H79 -3.423665530744E-01 -4.193255035272E-01 -1.887830221582E-01
H80  3.423665530744E-01  8.067449647278E-02 -3.112169778418E-01
C81 -4.870263562342E-01 -4.306746535222E-01 -2.946485068630E-01
C82  4.870263562342E-01  6.932534647784E-02 -2.053514931370E-01
C83  4.870263562342E-01  4.306746535222E-01  2.946485068630E-01
C84 -4.870263562342E-01 -6.932534647784E-02  2.053514931370E-01
H85 -4.769130263880E-01 -3.750098197173E-01 -1.350118256071E-01
H86  4.769130263880E-01  1.249901802827E-01 -3.649881743929E-01
H87  4.769130263880E-01  3.750098197173E-01  1.350118256071E-01
H88 -4.769130263880E-01 -1.249901802827E-01  3.649881743929E-01


#===END

data_OPT_STEP_17

_symmetry_space_group_name_H-M 'P 1'
_cell_length_a     18.05152051
_cell_length_b      7.86952581
_cell_length_c      6.28392333
_cell_angle_alpha   90.000000
_cell_angle_beta   88.935882
_cell_angle_gamma   90.000000

loop_
_atom_site_label
_atom_site_fract_x
_atom_site_fract_y
_atom_site_fract_z
C1  1.611055879106E-01 -3.773472023364E-01  4.788381345141E-01
C2 -1.611055879106E-01  1.226527976636E-01  2.116186548587E-02
C3 -1.611055879106E-01  3.773472023364E-01 -4.788381345141E-01
C4  1.611055879106E-01 -1.226527976636E-01 -2.116186548587E-02
H5  1.779497358779E-01 -2.748258063547E-01 -4.116455474449E-01
H6 -1.779497358779E-01  2.251741936453E-01 -8.835445255512E-02
H7 -1.779497358779E-01  2.748258063547E-01  4.116455474449E-01
H8  1.779497358779E-01 -2.251741936453E-01  8.835445255512E-02
C9  8.807513004217E-02 -3.802951099812E-01  4.055203162585E-01
C10 -8.807513004217E-02  1.197048900188E-01  9.447968374154E-02
C11 -8.807513004217E-02  3.802951099812E-01 -4.055203162585E-01
C12  8.807513004217E-02 -1.197048900188E-01 -9.447968374154E-02
H13  4.751927096750E-02 -2.853471460596E-01  4.680150264513E-01
H14 -4.751927096750E-02  2.146528539404E-01  3.198497354870E-02
H15 -4.751927096750E-02  2.853471460596E-01 -4.680150264513E-01
H16  4.751927096750E-02 -2.146528539404E-01 -3.198497354870E-02
C17  6.624165125567E-02  4.961638424513E-01  2.575966252637E-01
C18 -6.624165125567E-02 -3.836157548734E-03  2.424033747363E-01
C19 -6.624165125567E-02 -4.961638424513E-01 -2.575966252637E-01
C20  6.624165125567E-02  3.836157548734E-03 -2.424033747363E-01
H21  8.408006283047E-03  4.940437569874E-01  1.988849022030E-01
H22 -8.408006283047E-03 -5.956243012608E-03  3.011150977970E-01
H23 -8.408006283047E-03 -4.940437569874E-01 -1.988849022030E-01
H24  8.408006283047E-03  5.956243012607E-03 -3.011150977970E-01
C25  1.177204436237E-01  3.724526429857E-01  1.869600277062E-01
C26 -1.177204436237E-01 -1.275473570143E-01  3.130399722938E-01
C27 -1.177204436237E-01 -3.724526429857E-01 -1.869600277062E-01
C28  1.177204436237E-01  1.275473570143E-01 -3.130399722938E-01
H29  1.007988663614E-01  2.735457950742E-01  7.272526632246E-02
H30 -1.007988663614E-01 -2.264542049258E-01  4.272747336775E-01
H31 -1.007988663614E-01 -2.735457950742E-01 -7.272526632246E-02
H32  1.007988663614E-01  2.264542049258E-01 -4.272747336775E-01
C33  1.905908888779E-01  3.743526165201E-01  2.622737717516E-01
C34 -1.905908888779E-01 -1.256473834799E-01  2.377262282484E-01
C35 -1.905908888779E-01 -3.743526165201E-01 -2.622737717516E-01
C36  1.905908888779E-01  1.256473834799E-01 -2.377262282484E-01
H37  2.284630481964E-01  2.698689347858E-01  2.186967680108E-01
H38 -2.284630481964E-01 -2.301310652142E-01  2.813032319892E-01
H39 -2.284630481964E-01 -2.698689347858E-01 -2.186967680108E-01
H40  2.284630481964E-01  2.301310652142E-01 -2.813032319892E-01
C41  2.135094175997E-01  4.998215386651E-01  4.086465392886E-01
C42 -2.135094175997E-01 -1.784613348628E-04  9.135346071141E-02
C43 -2.135094175997E-01 -4.998215386651E-01 -4.086465392886E-01
C44  2.135094175997E-01  1.784613348626E-04 -9.135346071141E-02
C45  2.911844860187E-01 -4.957195561559E-01  4.881981994864E-01
C46 -2.911844860187E-01  4.280443844082E-03  1.180180051359E-02
C47 -2.911844860187E-01  4.957195561559E-01 -4.881981994864E-01
C48  2.911844860187E-01 -4.280443844083E-03 -1.180180051359E-02
C49  3.051792471428E-01 -4.362994174064E-01 -2.978834225879E-01
C50 -3.051792471428E-01  6.370058259365E-02 -2.021165774121E-01
C51 -3.051792471428E-01  4.362994174064E-01  2.978834225879E-01
C52  3.051792471428E-01 -6.370058259365E-02  2.021165774121E-01
H53  2.575073735343E-01 -4.065671483632E-01 -1.899275106928E-01
H54 -2.575073735343E-01  9.343285163680E-02 -3.100724893072E-01
H55 -2.575073735343E-01  4.065671483632E-01  1.899275106928E-01
H56  2.575073735343E-01 -9.343285163680E-02  3.100724893072E-01
C57  3.763268088384E-01 -4.159235855592E-01 -2.264874134644E-01
C58 -3.763268088384E-01  8.407641444082E-02 -2.735125865356E-01
C59 -3.763268088384E-01  4.159235855592E-01  2.264874134644E-01
C60  3.763268088384E-01 -8.407641444082E-02  2.735125865356E-01
H61  3.856659820749E-01 -3.693935329762E-01 -6.164614722401E-02
H62 -3.856659820749E-01  1.306064670238E-01 -4.383538527760E-01
H63 -3.856659820749E-01  3.693935329762E-01  6.164614722401E-02
H64  3.856659820749E-01 -1.306064670238E-01  4.383538527760E-01
C65  4.394972233182E-01 -4.563765562271E-01 -3.611550333311E-01
C66 -4.394972233182E-01  4.362344377289E-02 -1.388449666689E-01
C67 -4.394972233182E-01  4.563765562271E-01  3.611550333311E-01
C68  4.394972233182E-01 -4.362344377289E-02  1.388449666689E-01
C69  4.261322195805E-01  4.761686325605E-01  4.278423478997E-01
C70 -4.261322195805E-01 -2.383136743945E-02  7.215765210029E-02
C71 -4.261322195805E-01 -4.761686325605E-01 -4.278423478997E-01
C72  4.261322195805E-01  2.383136743945E-02 -7.215765210029E-02
C73  3.509288016739E-01  4.585830945695E-01  3.585086453114E-01
C74 -3.509288016739E-01 -4.141690543045E-02  1.414913546886E-01
C75 -3.509288016739E-01 -4.585830945695E-01 -3.585086453114E-01
C76  3.509288016739E-01  4.141690543045E-02 -1.414913546886E-01
H77  3.422268531355E-01  4.157695300554E-01  1.919412254825E-01
H78 -3.422268531355E-01 -8.423046994457E-02  3.080587745175E-01
H79 -3.422268531355E-01 -4.157695300554E-01 -1.919412254825E-01
H80  3.422268531355E-01  8.423046994457E-02 -3.080587745175E-01
C81 -4.871091935011E-01 -4.329541499822E-01 -2.938796621118E-01
C82  4.871091935011E-01  6.704585001778E-02 -2.061203378882E-01
C83  4.871091935011E-01  4.329541499822E-01  2.938796621118E-01
C84 -4.871091935011E-01 -6.704585001778E-02  2.061203378882E-01
H85 -4.770778807207E-01 -3.786079369464E-01 -1.332259006642E-01
H86  4.770778807207E-01  1.213920630536E-01 -3.667740993358E-01
H87  4.770778807207E-01  3.786079369464E-01  1.332259006642E-01
H88 -4.770778807207E-01 -1.213920630536E-01  3.667740993358E-01


#===END

data_OPT_STEP_18

_symmetry_space_group_name_H-M 'P 1'
_cell_length_a     18.04193786
_cell_length_b      7.88285951
_cell_length_c      6.28550906
_cell_angle_alpha   90.000000
_cell_angle_beta   88.981032
_cell_angle_gamma   90.000000

loop_
_atom_site_label
_atom_site_fract_x
_atom_site_fract_y
_atom_site_fract_z
C1  1.605186058127E-01 -3.745009235389E-01  4.791605640027E-01
C2 -1.605186058127E-01  1.254990764611E-01  2.083943599729E-02
C3 -1.605186058127E-01  3.745009235389E-01 -4.791605640027E-01
C4  1.605186058127E-01 -1.254990764611E-01 -2.083943599729E-02
H5  1.772379389902E-01 -2.723695270217E-01 -4.097576171870E-01
H6 -1.772379389902E-01  2.276304729783E-01 -9.024238281295E-02
H7 -1.772379389902E-01  2.723695270217E-01  4.097576171870E-01
H8  1.772379389902E-01 -2.276304729783E-01  9.024238281295E-02
C9  8.715698180517E-02 -3.799904658901E-01  4.078166038686E-01
C10 -8.715698180517E-02  1.200095341099E-01  9.218339613135E-02
C11 -8.715698180517E-02  3.799904658901E-01 -4.078166038686E-01
C12  8.715698180517E-02 -1.200095341099E-01 -9.218339613135E-02
H13  4.681545879168E-02 -2.836874067123E-01  4.675401471276E-01
H14 -4.681545879168E-02  2.163125932877E-01  3.245985287236E-02
H15 -4.681545879168E-02  2.836874067123E-01 -4.675401471276E-01
H16  4.681545879168E-02 -2.163125932877E-01 -3.245985287236E-02
C17  6.526422489141E-02  4.950413468340E-01  2.613194325085E-01
C18 -6.526422489141E-02 -4.958653165972E-03  2.386805674915E-01
C19 -6.526422489141E-02 -4.950413468340E-01 -2.613194325085E-01
C20  6.526422489141E-02  4.958653165972E-03 -2.386805674915E-01
H21  7.572714648944E-03  4.931604136548E-01  2.022074293877E-01
H22 -7.572714648944E-03 -6.839586345163E-03  2.977925706123E-01
H23 -7.572714648944E-03 -4.931604136548E-01 -2.022074293877E-01
H24  7.572714648944E-03  6.839586345163E-03 -2.977925706123E-01
C25  1.169985813235E-01  3.734926877169E-01  1.897378781197E-01
C26 -1.169985813235E-01 -1.265073122831E-01  3.102621218803E-01
C27 -1.169985813235E-01 -3.734926877169E-01 -1.897378781197E-01
C28  1.169985813235E-01  1.265073122831E-01 -3.102621218803E-01
H29  1.001804258041E-01  2.746423965704E-01  7.531741146171E-02
H30 -1.001804258041E-01 -2.253576034296E-01  4.246825885383E-01
H31 -1.001804258041E-01 -2.746423965704E-01 -7.531741146171E-02
H32  1.001804258041E-01  2.253576034296E-01 -4.246825885383E-01
C33  1.900987413350E-01  3.768594121098E-01  2.638843290424E-01
C34 -1.900987413350E-01 -1.231405878902E-01  2.361156709576E-01
C35 -1.900987413350E-01 -3.768594121098E-01 -2.638843290424E-01
C36  1.900987413350E-01  1.231405878902E-01 -2.361156709576E-01
H37  2.286947972390E-01  2.740213778422E-01  2.173711925628E-01
H38 -2.286947972390E-01 -2.259786221578E-01  2.826288074372E-01
H39 -2.286947972390E-01 -2.740213778422E-01 -2.173711925628E-01
H40  2.286947972390E-01  2.259786221578E-01 -2.826288074372E-01
C41  2.130740029590E-01 -4.967110345262E-01  4.091297194023E-01
C42 -2.130740029590E-01  3.288965473750E-03  9.087028059774E-02
C43 -2.130740029590E-01  4.967110345262E-01 -4.091297194023E-01
C44  2.130740029590E-01 -3.288965473750E-03 -9.087028059774E-02
C45  2.909967518897E-01 -4.902570211377E-01  4.872306511363E-01
C46 -2.909967518897E-01  9.742978862291E-03  1.276934886369E-02
C47 -2.909967518897E-01  4.902570211377E-01 -4.872306511363E-01
C48  2.909967518897E-01 -9.742978862291E-03 -1.276934886369E-02
C49  3.053497714307E-01 -4.302271027248E-01 -2.996210722734E-01
C50 -3.053497714307E-01  6.977289727521E-02 -2.003789277266E-01
C51 -3.053497714307E-01  4.302271027248E-01  2.996210722734E-01
C52  3.053497714307E-01 -6.977289727521E-02  2.003789277266E-01
H53  2.576388637472E-01 -4.009605738108E-01 -1.906407923153E-01
H54 -2.576388637472E-01  9.903942618924E-02 -3.093592076847E-01
H55 -2.576388637472E-01  4.009605738108E-01  1.906407923153E-01
H56  2.576388637472E-01 -9.903942618924E-02  3.093592076847E-01
C57  3.766236958476E-01 -4.114838498646E-01 -2.278320404532E-01
C58 -3.766236958476E-01  8.851615013544E-02 -2.721679595468E-01
C59 -3.766236958476E-01  4.114838498646E-01  2.278320404532E-01
C60  3.766236958476E-01 -8.851615013544E-02  2.721679595468E-01
H61  3.858877252953E-01 -3.638448187259E-01 -6.382802430143E-02
H62 -3.858877252953E-01  1.361551812741E-01 -4.361719756986E-01
H63 -3.858877252953E-01  3.638448187259E-01  6.382802430143E-02
H64  3.858877252953E-01 -1.361551812741E-01  4.361719756986E-01
C65  4.396535189685E-01 -4.546423213810E-01 -3.615671878329E-01
C66 -4.396535189685E-01  4.535767861900E-02 -1.384328121671E-01
C67 -4.396535189685E-01  4.546423213810E-01  3.615671878329E-01
C68  4.396535189685E-01 -4.535767861900E-02  1.384328121671E-01
C69  4.259111848403E-01  4.767191756475E-01  4.281174049715E-01
C70 -4.259111848403E-01 -2.328082435246E-02  7.188259502846E-02
C71 -4.259111848403E-01 -4.767191756475E-01 -4.281174049715E-01
C72  4.259111848403E-01  2.328082435246E-02 -7.188259502846E-02
C73  3.505966835183E-01  4.612393038448E-01  3.583162020858E-01
C74 -3.505966835183E-01 -3.876069615517E-02  1.416837979142E-01
C75 -3.505966835183E-01 -4.612393038448E-01 -3.583162020858E-01
C76  3.505966835183E-01  3.876069615517E-02 -1.416837979142E-01
H77  3.416792915581E-01  4.173338520905E-01  1.925810505075E-01
H78 -3.416792915581E-01 -8.266614790951E-02  3.074189494925E-01
H79 -3.416792915581E-01 -4.173338520905E-01 -1.925810505075E-01
H80  3.416792915581E-01  8.266614790951E-02 -3.074189494925E-01
C81 -4.867511194394E-01 -4.324415283490E-01 -2.944967986959E-01
C82  4.867511194394E-01  6.755847165103E-02 -2.055032013041E-01
C83  4.867511194394E-01  4.324415283490E-01  2.944967986959E-01
C84 -4.867511194394E-01 -6.755847165103E-02  2.055032013041E-01
H85 -4.765457162032E-01 -3.777593816399E-01 -1.333929619537E-01
H86  4.765457162032E-01  1.222406183601E-01 -3.666070380463E-01
H87  4.765457162032E-01  3.777593816399E-01  1.333929619537E-01
H88 -4.765457162032E-01 -1.222406183601E-01  3.666070380463E-01


#===END

data_OPT_STEP_19

_symmetry_space_group_name_H-M 'P 1'
_cell_length_a     18.01822521
_cell_length_b      7.85334554
_cell_length_c      6.29693540
_cell_angle_alpha   90.000000
_cell_angle_beta   88.875662
_cell_angle_gamma   90.000000

loop_
_atom_site_label
_atom_site_fract_x
_atom_site_fract_y
_atom_site_fract_z
C1  1.600921296091E-01 -3.768338295017E-01  4.807037848990E-01
C2 -1.600921296091E-01  1.231661704983E-01  1.929621510100E-02
C3 -1.600921296091E-01  3.768338295017E-01 -4.807037848990E-01
C4  1.600921296091E-01 -1.231661704983E-01 -1.929621510100E-02
H5  1.764757605835E-01 -2.768967895566E-01 -4.053490098624E-01
H6 -1.764757605835E-01  2.231032104434E-01 -9.465099013759E-02
H7 -1.764757605835E-01  2.768967895566E-01  4.053490098624E-01
H8  1.764757605835E-01 -2.231032104434E-01  9.465099013759E-02
C9  8.687440792485E-02 -3.801558970293E-01  4.078053314223E-01
C10 -8.687440792485E-02  1.198441029707E-01  9.219466857767E-02
C11 -8.687440792485E-02  3.801558970293E-01 -4.078053314223E-01
C12  8.687440792485E-02 -1.198441029707E-01 -9.219466857767E-02
H13  4.657796277103E-02 -2.832749525483E-01  4.663172286080E-01
H14 -4.657796277103E-02  2.167250474517E-01  3.368277139203E-02
H15 -4.657796277103E-02  2.832749525483E-01 -4.663172286080E-01
H16  4.657796277103E-02 -2.167250474517E-01 -3.368277139203E-02
C17  6.495063239886E-02  4.945615952495E-01  2.617926455122E-01
C18 -6.495063239886E-02 -5.438404750467E-03  2.382073544878E-01
C19 -6.495063239886E-02 -4.945615952495E-01 -2.617926455122E-01
C20  6.495063239886E-02  5.438404750467E-03 -2.382073544878E-01
H21  7.239683345425E-03  4.929654341580E-01  2.032692544533E-01
H22 -7.239683345425E-03 -7.034565841998E-03  2.967307455467E-01
H23 -7.239683345425E-03 -4.929654341580E-01 -2.032692544533E-01
H24  7.239683345425E-03  7.034565841998E-03 -2.967307455467E-01
C25  1.165625035755E-01  3.707942948919E-01  1.919937751601E-01
C26 -1.165625035755E-01 -1.292057051081E-01  3.080062248399E-01
C27 -1.165625035755E-01 -3.707942948919E-01 -1.919937751601E-01
C28  1.165625035755E-01  1.292057051081E-01 -3.080062248399E-01
H29  9.967874708868E-02  2.705789968161E-01  7.866584488251E-02
H30 -9.967874708868E-02 -2.294210031839E-01  4.213341551175E-01
H31 -9.967874708868E-02 -2.705789968161E-01 -7.866584488251E-02
H32  9.967874708868E-02  2.294210031839E-01 -4.213341551175E-01
C33  1.895922577011E-01  3.721529849381E-01  2.672909788066E-01
C34 -1.895922577011E-01 -1.278470150619E-01  2.327090211934E-01
C35 -1.895922577011E-01 -3.721529849381E-01 -2.672909788066E-01
C36  1.895922577011E-01  1.278470150619E-01 -2.327090211934E-01
H37  2.287048558666E-01  2.703122052749E-01  2.181859077892E-01
H38 -2.287048558666E-01 -2.296877947251E-01  2.818140922108E-01
H39 -2.287048558666E-01 -2.703122052749E-01 -2.181859077892E-01
H40  2.287048558666E-01  2.296877947251E-01 -2.818140922108E-01
C41  2.125899079016E-01  4.989858050322E-01  4.121101909679E-01
C42 -2.125899079016E-01 -1.014194967763E-03  8.788980903207E-02
C43 -2.125899079016E-01 -4.989858050322E-01 -4.121101909679E-01
C44  2.125899079016E-01  1.014194967763E-03 -8.788980903207E-02
C45  2.906592407501E-01 -4.940735334767E-01  4.894293506876E-01
C46 -2.906592407501E-01  5.926466523332E-03  1.057064931237E-02
C47 -2.906592407501E-01  4.940735334767E-01 -4.894293506876E-01
C48  2.906592407501E-01 -5.926466523332E-03 -1.057064931237E-02
C49  3.050819727927E-01 -4.319274123076E-01 -2.987641357703E-01
C50 -3.050819727927E-01  6.807258769243E-02 -2.012358642297E-01
C51 -3.050819727927E-01  4.319274123076E-01  2.987641357703E-01
C52  3.050819727927E-01 -6.807258769243E-02  2.012358642297E-01
H53  2.572494009470E-01 -4.036418009055E-01 -1.889777367916E-01
H54 -2.572494009470E-01  9.635819909446E-02 -3.110222632084E-01
H55 -2.572494009470E-01  4.036418009055E-01  1.889777367916E-01
H56  2.572494009470E-01 -9.635819909446E-02  3.110222632084E-01
C57  3.764339903976E-01 -4.132552885751E-01 -2.271351506612E-01
C58 -3.764339903976E-01  8.674471142495E-02 -2.728648493388E-01
C59 -3.764339903976E-01  4.132552885751E-01  2.271351506612E-01
C60  3.764339903976E-01 -8.674471142495E-02  2.728648493388E-01
H61  3.855735340280E-01 -3.642865649782E-01 -6.406549493806E-02
H62 -3.855735340280E-01  1.357134350218E-01 -4.359345050619E-01
H63 -3.855735340280E-01  3.642865649782E-01  6.406549493806E-02
H64  3.855735340280E-01 -1.357134350218E-01  4.359345050619E-01
C65  4.395475750603E-01 -4.553094616614E-01 -3.613026651271E-01
C66 -4.395475750603E-01  4.469053833860E-02 -1.386973348729E-01
C67 -4.395475750603E-01  4.553094616614E-01  3.613026651271E-01
C68  4.395475750603E-01 -4.469053833860E-02  1.386973348729E-01
C69  4.258138307101E-01  4.739279758634E-01  4.296198722243E-01
C70 -4.258138307101E-01 -2.607202413659E-02  7.038012777567E-02
C71 -4.258138307101E-01 -4.739279758634E-01 -4.296198722243E-01
C72  4.258138307101E-01  2.607202413659E-02 -7.038012777567E-02
C73  3.504221729153E-01  4.580358727561E-01  3.601660143545E-01
C74 -3.504221729153E-01 -4.196412724389E-02  1.398339856455E-01
C75 -3.504221729153E-01 -4.580358727561E-01 -3.601660143545E-01
C76  3.504221729153E-01  4.196412724388E-02 -1.398339856455E-01
H77  3.415281210972E-01  4.126602597869E-01  1.953795396091E-01
H78 -3.415281210972E-01 -8.733974021311E-02  3.046204603909E-01
H79 -3.415281210972E-01 -4.126602597869E-01 -1.953795396091E-01
H80  3.415281210972E-01  8.733974021311E-02 -3.046204603909E-01
C81 -4.867879110417E-01 -4.298083711416E-01 -2.960892943002E-01
C82  4.867879110417E-01  7.019162885844E-02 -2.039107056998E-01
C83  4.867879110417E-01  4.298083711416E-01  2.960892943002E-01
C84 -4.867879110417E-01 -7.019162885844E-02  2.039107056998E-01
H85 -4.766444753256E-01 -3.746718118001E-01 -1.350151284743E-01
H86  4.766444753256E-01  1.253281881999E-01 -3.649848715257E-01
H87  4.766444753256E-01  3.746718118001E-01  1.350151284743E-01
H88 -4.766444753256E-01 -1.253281881999E-01  3.649848715257E-01


#===END

data_OPT_STEP_20

_symmetry_space_group_name_H-M 'P 1'
_cell_length_a     18.01996830
_cell_length_b      7.85209138
_cell_length_c      6.30123582
_cell_angle_alpha   90.000000
_cell_angle_beta   88.905274
_cell_angle_gamma   90.000000

loop_
_atom_site_label
_atom_site_fract_x
_atom_site_fract_y
_atom_site_fract_z
C1  1.600752665826E-01 -3.764889464782E-01  4.805017046999E-01
C2 -1.600752665826E-01  1.235110535218E-01  1.949829530007E-02
C3 -1.600752665826E-01  3.764889464782E-01 -4.805017046999E-01
C4  1.600752665826E-01 -1.235110535218E-01 -1.949829530007E-02
H5  1.764909289126E-01 -2.760038727936E-01 -4.059999945954E-01
H6 -1.764909289126E-01  2.239961272064E-01 -9.400000540461E-02
H7 -1.764909289126E-01  2.760038727936E-01  4.059999945954E-01
H8  1.764909289126E-01 -2.239961272064E-01  9.400000540461E-02
C9  8.686825129879E-02 -3.795980114948E-01  4.074352392546E-01
C10 -8.686825129879E-02  1.204019885052E-01  9.256476074541E-02
C11 -8.686825129879E-02  3.795980114948E-01 -4.074352392546E-01
C12  8.686825129879E-02 -1.204019885052E-01 -9.256476074541E-02
H13  4.659598315804E-02 -2.826932201831E-01  4.657071822011E-01
H14 -4.659598315804E-02  2.173067798169E-01  3.429281779892E-02
H15 -4.659598315804E-02  2.826932201831E-01 -4.657071822011E-01
H16  4.659598315804E-02 -2.173067798169E-01 -3.429281779892E-02
C17  6.491364042388E-02  4.951901040452E-01  2.614679028993E-01
C18 -6.491364042388E-02 -4.809895954826E-03  2.385320971007E-01
C19 -6.491364042388E-02 -4.951901040452E-01 -2.614679028993E-01
C20  6.491364042388E-02  4.809895954826E-03 -2.385320971007E-01
H21  7.171122704904E-03  4.934015568521E-01  2.032870654363E-01
H22 -7.171122704904E-03 -6.598443147918E-03  2.967129345637E-01
H23 -7.171122704904E-03 -4.934015568521E-01 -2.032870654363E-01
H24  7.171122704904E-03  6.598443147918E-03 -2.967129345637E-01
C25  1.165536370431E-01  3.716980435766E-01  1.914362655656E-01
C26 -1.165536370431E-01 -1.283019564234E-01  3.085637344344E-01
C27 -1.165536370431E-01 -3.716980435766E-01 -1.914362655656E-01
C28  1.165536370431E-01  1.283019564234E-01 -3.085637344344E-01
H29  9.964740267186E-02  2.711179689665E-01  7.847289376442E-02
H30 -9.964740267186E-02 -2.288820310335E-01  4.215271062356E-01
H31 -9.964740267186E-02 -2.711179689665E-01 -7.847289376442E-02
H32  9.964740267186E-02  2.288820310335E-01 -4.215271062356E-01
C33  1.896060438291E-01  3.730524308930E-01  2.666698671705E-01
C34 -1.896060438291E-01 -1.269475691070E-01  2.333301328295E-01
C35 -1.896060438291E-01 -3.730524308930E-01 -2.666698671705E-01
C36  1.896060438291E-01  1.269475691070E-01 -2.333301328295E-01
H37  2.287982143670E-01  2.714880365307E-01  2.169395025526E-01
H38 -2.287982143670E-01 -2.285119634693E-01  2.830604974474E-01
H39 -2.287982143670E-01 -2.714880365307E-01 -2.169395025526E-01
H40  2.287982143670E-01  2.285119634693E-01 -2.830604974474E-01
C41  2.126123618254E-01  4.996856965508E-01  4.115807106599E-01
C42 -2.126123618254E-01 -3.143034491821E-04  8.841928934012E-02
C43 -2.126123618254E-01 -4.996856965508E-01 -4.115807106599E-01
C44  2.126123618254E-01  3.143034491819E-04 -8.841928934012E-02
C45  2.906520851055E-01 -4.937835174283E-01  4.890810509778E-01
C46 -2.906520851055E-01  6.216482571705E-03  1.091894902215E-02
C47 -2.906520851055E-01  4.937835174283E-01 -4.890810509778E-01
C48  2.906520851055E-01 -6.216482571705E-03 -1.091894902215E-02
C49  3.050991387758E-01 -4.313330159038E-01 -2.993583293696E-01
C50 -3.050991387758E-01  6.866698409623E-02 -2.006416706304E-01
C51 -3.050991387758E-01  4.313330159038E-01  2.993583293696E-01
C52  3.050991387758E-01 -6.866698409623E-02  2.006416706304E-01
H53  2.573097679147E-01 -4.025043622316E-01 -1.898411239173E-01
H54 -2.573097679147E-01  9.749563776840E-02 -3.101588760827E-01
H55 -2.573097679147E-01  4.025043622316E-01  1.898411239173E-01
H56  2.573097679147E-01 -9.749563776840E-02  3.101588760827E-01
C57  3.764545248811E-01 -4.126869537910E-01 -2.277052742419E-01
C58 -3.764545248811E-01  8.731304620903E-02 -2.722947257581E-01
C59 -3.764545248811E-01  4.126869537910E-01  2.277052742419E-01
C60  3.764545248811E-01 -8.731304620903E-02  2.722947257581E-01
H61  3.856327555837E-01 -3.634276813118E-01 -6.489866426891E-02
H62 -3.856327555837E-01  1.365723186882E-01 -4.351013357311E-01
H63 -3.856327555837E-01  3.634276813118E-01  6.489866426891E-02
H64  3.856327555837E-01 -1.365723186882E-01  4.351013357311E-01
C65  4.395487618776E-01 -4.548255905211E-01 -3.617113364233E-01
C66 -4.395487618776E-01  4.517440947887E-02 -1.382886635767E-01
C67 -4.395487618776E-01  4.548255905211E-01  3.617113364233E-01
C68  4.395487618776E-01 -4.517440947887E-02  1.382886635767E-01
C69  4.258022005212E-01  4.749930570103E-01  4.290919181109E-01
C70 -4.258022005212E-01 -2.500694298966E-02  7.090808188914E-02
C71 -4.258022005212E-01 -4.749930570103E-01 -4.290919181109E-01
C72  4.258022005212E-01  2.500694298966E-02 -7.090808188914E-02
C73  3.504088866638E-01  4.587053717940E-01  3.597727091278E-01
C74 -3.504088866638E-01 -4.129462820601E-02  1.402272908722E-01
C75 -3.504088866638E-01 -4.587053717940E-01 -3.597727091278E-01
C76  3.504088866638E-01  4.129462820601E-02 -1.402272908722E-01
H77  3.414946115621E-01  4.129607908137E-01  1.952372902982E-01
H78 -3.414946115621E-01 -8.703920918633E-02  3.047627097018E-01
H79 -3.414946115621E-01 -4.129607908137E-01 -1.952372902982E-01
H80  3.414946115621E-01  8.703920918633E-02 -3.047627097018E-01
C81 -4.867764367971E-01 -4.304147719365E-01 -2.959538105971E-01
C82  4.867764367971E-01  6.958522806355E-02 -2.040461894029E-01
C83  4.867764367971E-01  4.304147719365E-01  2.959538105971E-01
C84 -4.867764367971E-01 -6.958522806355E-02  2.040461894029E-01
H85 -4.766311524753E-01 -3.761041402263E-01 -1.346565750555E-01
H86  4.766311524753E-01  1.238958597737E-01 -3.653434249445E-01
H87  4.766311524753E-01  3.761041402263E-01  1.346565750555E-01
H88 -4.766311524753E-01 -1.238958597737E-01  3.653434249445E-01


#===END

data_OPT_STEP_21

_symmetry_space_group_name_H-M 'P 1'
_cell_length_a     18.02659638
_cell_length_b      7.83908762
_cell_length_c      6.30746422
_cell_angle_alpha   90.000000
_cell_angle_beta   89.048698
_cell_angle_gamma   90.000000

loop_
_atom_site_label
_atom_site_fract_x
_atom_site_fract_y
_atom_site_fract_z
C1  1.601579985984E-01 -3.764134781443E-01  4.807468431754E-01
C2 -1.601579985984E-01  1.235865218557E-01  1.925315682460E-02
C3 -1.601579985984E-01  3.764134781443E-01 -4.807468431754E-01
C4  1.601579985984E-01 -1.235865218557E-01 -1.925315682460E-02
H5  1.766593111002E-01 -2.745773723488E-01 -4.069137338370E-01
H6 -1.766593111002E-01  2.254226276512E-01 -9.308626616300E-02
H7 -1.766593111002E-01  2.745773723488E-01  4.069137338370E-01
H8  1.766593111002E-01 -2.254226276512E-01  9.308626616300E-02
C9  8.701157425343E-02 -3.789557724821E-01  4.070245582141E-01
C10 -8.701157425343E-02  1.210442275179E-01  9.297544178591E-02
C11 -8.701157425343E-02  3.789557724821E-01 -4.070245582141E-01
C12  8.701157425343E-02 -1.210442275179E-01 -9.297544178591E-02
H13  4.681792281536E-02 -2.820356998644E-01  4.649783810284E-01
H14 -4.681792281536E-02  2.179643001356E-01  3.502161897160E-02
H15 -4.681792281536E-02  2.820356998644E-01 -4.649783810284E-01
H16  4.681792281536E-02 -2.179643001356E-01 -3.502161897160E-02
C17  6.494061084998E-02  4.963337631771E-01  2.606053393139E-01
C18 -6.494061084998E-02 -3.666236822854E-03  2.393946606861E-01
C19 -6.494061084998E-02 -4.963337631771E-01 -2.606053393139E-01
C20  6.494061084998E-02  3.666236822853E-03 -2.393946606861E-01
H21  7.075100831302E-03  4.941531797259E-01  2.032332042376E-01
H22 -7.075100831302E-03 -5.846820274131E-03  2.967667957624E-01
H23 -7.075100831302E-03 -4.941531797259E-01 -2.032332042376E-01
H24  7.075100831302E-03  5.846820274131E-03 -2.967667957624E-01
C25  1.166082379904E-01  3.733983618297E-01  1.897708156513E-01
C26 -1.166082379904E-01 -1.266016381703E-01  3.102291843487E-01
C27 -1.166082379904E-01 -3.733983618297E-01 -1.897708156513E-01
C28  1.166082379904E-01  1.266016381703E-01 -3.102291843487E-01
H29  9.972511756638E-02  2.728930999376E-01  7.670851701222E-02
H30 -9.972511756638E-02 -2.271069000624E-01  4.232914829878E-01
H31 -9.972511756638E-02 -2.728930999376E-01 -7.670851701222E-02
H32  9.972511756638E-02  2.271069000624E-01 -4.232914829878E-01
C33  1.897529180190E-01  3.752515002923E-01  2.645609020959E-01
C34 -1.897529180190E-01 -1.247484997077E-01  2.354390979041E-01
C35 -1.897529180190E-01 -3.752515002923E-01 -2.645609020959E-01
C36  1.897529180190E-01  1.247484997077E-01 -2.354390979041E-01
H37  2.289301190987E-01  2.732380916481E-01  2.141361583008E-01
H38 -2.289301190987E-01 -2.267619083519E-01  2.858638416992E-01
H39 -2.289301190987E-01 -2.732380916481E-01 -2.141361583008E-01
H40  2.289301190987E-01  2.267619083519E-01 -2.858638416992E-01
C41  2.127751309830E-01 -4.992014522792E-01  4.106211369708E-01
C42 -2.127751309830E-01  7.985477208154E-04  8.937886302922E-02
C43 -2.127751309830E-01  4.992014522792E-01 -4.106211369708E-01
C44  2.127751309830E-01 -7.985477208155E-04 -8.937886302922E-02
C45  2.907785738039E-01 -4.934975204875E-01  4.885979872483E-01
C46 -2.907785738039E-01  6.502479512456E-03  1.140201275168E-02
C47 -2.907785738039E-01  4.934975204875E-01 -4.885979872483E-01
C48  2.907785738039E-01 -6.502479512457E-03 -1.140201275168E-02
C49  3.052926823017E-01 -4.326576043779E-01 -2.992386373255E-01
C50 -3.052926823017E-01  6.734239562210E-02 -2.007613626745E-01
C51 -3.052926823017E-01  4.326576043779E-01  2.992386373255E-01
C52  3.052926823017E-01 -6.734239562210E-02  2.007613626745E-01
H53  2.576925556675E-01 -4.035417855101E-01 -1.900665927583E-01
H54 -2.576925556675E-01  9.645821448988E-02 -3.099334072417E-01
H55 -2.576925556675E-01  4.035417855101E-01  1.900665927583E-01
H56  2.576925556675E-01 -9.645821448988E-02  3.099334072417E-01
C57  3.766745161608E-01 -4.123829487410E-01 -2.282099649257E-01
C58 -3.766745161608E-01  8.761705125900E-02 -2.717900350743E-01
C59 -3.766745161608E-01  4.123829487410E-01  2.282099649257E-01
C60  3.766745161608E-01 -8.761705125900E-02  2.717900350743E-01
H61  3.860834833378E-01 -3.627255145990E-01 -6.580433392499E-02
H62 -3.860834833378E-01  1.372744854010E-01 -4.341956660750E-01
H63 -3.860834833378E-01  3.627255145990E-01  6.580433392499E-02
H64  3.860834833378E-01 -1.372744854010E-01  4.341956660750E-01
C65  4.396457235897E-01 -4.554068237017E-01 -3.617532946209E-01
C66 -4.396457235897E-01  4.459317629827E-02 -1.382467053791E-01
C67 -4.396457235897E-01  4.554068237017E-01  3.617532946209E-01
C68  4.396457235897E-01 -4.459317629827E-02  1.382467053791E-01
C69  4.257993048781E-01  4.744354046570E-01  4.292342109601E-01
C70 -4.257993048781E-01 -2.556459534302E-02  7.076578903990E-02
C71 -4.257993048781E-01 -4.744354046570E-01 -4.292342109601E-01
C72  4.257993048781E-01  2.556459534302E-02 -7.076578903990E-02
C73  3.503967211009E-01  4.583451826806E-01  3.597537148210E-01
C74 -3.503967211009E-01 -4.165481731945E-02  1.402462851790E-01
C75 -3.503967211009E-01 -4.583451826806E-01 -3.597537148210E-01
C76  3.503967211009E-01  4.165481731945E-02 -1.402462851790E-01
H77  3.413356569780E-01  4.120965372115E-01  1.955126983101E-01
H78 -3.413356569780E-01 -8.790346278853E-02  3.044873016899E-01
H79 -3.413356569780E-01 -4.120965372115E-01 -1.955126983101E-01
H80  3.413356569780E-01  8.790346278853E-02 -3.044873016899E-01
C81 -4.866937443490E-01 -4.299539490444E-01 -2.963036352797E-01
C82  4.866937443490E-01  7.004605095559E-02 -2.036963647203E-01
C83  4.866937443490E-01  4.299539490444E-01  2.963036352797E-01
C84 -4.866937443490E-01 -7.004605095560E-02  2.036963647203E-01
H85 -4.765231826667E-01 -3.739534064272E-01 -1.363094133359E-01
H86  4.765231826667E-01  1.260465935728E-01 -3.636905866641E-01
H87  4.765231826667E-01  3.739534064272E-01  1.363094133359E-01
H88 -4.765231826667E-01 -1.260465935728E-01  3.636905866641E-01


#===END

data_OPT_STEP_22

_symmetry_space_group_name_H-M 'P 1'
_cell_length_a     18.03326197
_cell_length_b      7.83969070
_cell_length_c      6.30029621
_cell_angle_alpha   90.000000
_cell_angle_beta   89.190620
_cell_angle_gamma   90.000000

loop_
_atom_site_label
_atom_site_fract_x
_atom_site_fract_y
_atom_site_fract_z
C1  1.602754246856E-01 -3.766422663752E-01  4.815794177058E-01
C2 -1.602754246856E-01  1.233577336248E-01  1.842058229421E-02
C3 -1.602754246856E-01  3.766422663752E-01 -4.815794177058E-01
C4  1.602754246856E-01 -1.233577336248E-01 -1.842058229421E-02
H5  1.768796853407E-01 -2.742899209704E-01 -4.064983070023E-01
H6 -1.768796853407E-01  2.257100790296E-01 -9.350169299765E-02
H7 -1.768796853407E-01  2.742899209704E-01  4.064983070023E-01
H8  1.768796853407E-01 -2.257100790296E-01  9.350169299765E-02
C9  8.708856384960E-02 -3.792095160537E-01  4.079238722078E-01
C10 -8.708856384960E-02  1.207904839463E-01  9.207612779220E-02
C11 -8.708856384960E-02  3.792095160537E-01 -4.079238722078E-01
C12  8.708856384960E-02 -1.207904839463E-01 -9.207612779220E-02
H13  4.707626525978E-02 -2.816402106096E-01  4.656475761541E-01
H14 -4.707626525978E-02  2.183597893904E-01  3.435242384586E-02
H15 -4.707626525978E-02  2.816402106096E-01 -4.656475761541E-01
H16  4.707626525978E-02 -2.183597893904E-01 -3.435242384586E-02
C17  6.480920944457E-02  4.961922120566E-01  2.610752232809E-01
C18 -6.480920944457E-02 -3.807787943391E-03  2.389247767191E-01
C19 -6.480920944457E-02 -4.961922120566E-01 -2.610752232809E-01
C20  6.480920944457E-02  3.807787943391E-03 -2.389247767191E-01
H21  6.834710726886E-03  4.940108941073E-01  2.038848825098E-01
H22 -6.834710726886E-03 -5.989105892704E-03  2.961151174902E-01
H23 -6.834710726886E-03 -4.940108941073E-01 -2.038848825098E-01
H24  6.834710726886E-03  5.989105892704E-03 -2.961151174902E-01
C25  1.165055737701E-01  3.742281670652E-01  1.887093598145E-01
C26 -1.165055737701E-01 -1.257718329348E-01  3.112906401855E-01
C27 -1.165055737701E-01 -3.742281670652E-01 -1.887093598145E-01
C28  1.165055737701E-01  1.257718329348E-01 -3.112906401855E-01
H29  9.953981727318E-02  2.734023814457E-01  7.567646569234E-02
H30 -9.953981727318E-02 -2.265976185543E-01  4.243235343077E-01
H31 -9.953981727318E-02 -2.734023814457E-01 -7.567646569234E-02
H32  9.953981727318E-02  2.265976185543E-01 -4.243235343077E-01
C33  1.897273145822E-01  3.763433735494E-01  2.632011349939E-01
C34 -1.897273145822E-01 -1.236566264506E-01  2.367988650061E-01
C35 -1.897273145822E-01 -3.763433735494E-01 -2.632011349939E-01
C36  1.897273145822E-01  1.236566264506E-01 -2.367988650061E-01
H37  2.288784679798E-01  2.747791978399E-01  2.113954768942E-01
H38 -2.288784679798E-01 -2.252208021601E-01  2.886045231058E-01
H39 -2.288784679798E-01 -2.747791978399E-01 -2.113954768942E-01
H40  2.288784679798E-01  2.252208021601E-01 -2.886045231058E-01
C41  2.128405083132E-01 -4.990179652958E-01  4.105484811660E-01
C42 -2.128405083132E-01  9.820347042123E-04  8.945151883397E-02
C43 -2.128405083132E-01  4.990179652958E-01 -4.105484811660E-01
C44  2.128405083132E-01 -9.820347042124E-04 -8.945151883397E-02
C45  2.908643272688E-01 -4.934431022013E-01  4.886840467304E-01
C46 -2.908643272688E-01  6.556897798736E-03  1.131595326964E-02
C47 -2.908643272688E-01  4.934431022013E-01 -4.886840467304E-01
C48  2.908643272688E-01 -6.556897798736E-03 -1.131595326964E-02
C49  3.055502742551E-01 -4.308318751591E-01 -2.995508998036E-01
C50 -3.055502742551E-01  6.916812484094E-02 -2.004491001964E-01
C51 -3.055502742551E-01  4.308318751591E-01  2.995508998036E-01
C52  3.055502742551E-01 -6.916812484094E-02  2.004491001964E-01
H53  2.581614497552E-01 -3.987227064238E-01 -1.915941573254E-01
H54 -2.581614497552E-01  1.012772935762E-01 -3.084058426746E-01
H55 -2.581614497552E-01  3.987227064238E-01  1.915941573254E-01
H56  2.581614497552E-01 -1.012772935762E-01  3.084058426746E-01
C57  3.769785732374E-01 -4.112060292133E-01 -2.283378032760E-01
C58 -3.769785732374E-01  8.879397078670E-02 -2.716621967240E-01
C59 -3.769785732374E-01  4.112060292133E-01  2.283378032760E-01
C60  3.769785732374E-01 -8.879397078670E-02  2.716621967240E-01
H61  3.867068273230E-01 -3.620699981196E-01 -6.561104586139E-02
H62 -3.867068273230E-01  1.379300018804E-01 -4.343889541386E-01
H63 -3.867068273230E-01  3.620699981196E-01  6.561104586139E-02
H64  3.867068273230E-01 -1.379300018804E-01  4.343889541386E-01
C65  4.397857524230E-01 -4.545621542572E-01 -3.620441581108E-01
C66 -4.397857524230E-01  4.543784574283E-02 -1.379558418892E-01
C67 -4.397857524230E-01  4.545621542572E-01  3.620441581108E-01
C68  4.397857524230E-01 -4.543784574283E-02  1.379558418892E-01
C69  4.257640923560E-01  4.747085345824E-01  4.290565402283E-01
C70 -4.257640923560E-01 -2.529146541764E-02  7.094345977170E-02
C71 -4.257640923560E-01 -4.747085345824E-01 -4.290565402283E-01
C72  4.257640923560E-01  2.529146541764E-02 -7.094345977170E-02
C73  3.503086268604E-01  4.574254230781E-01  3.601418863543E-01
C74 -3.503086268604E-01 -4.257457692193E-02  1.398581136457E-01
C75 -3.503086268604E-01 -4.574254230781E-01 -3.601418863543E-01
C76  3.503086268604E-01  4.257457692193E-02 -1.398581136457E-01
H77  3.410790370760E-01  4.114947221782E-01  1.954861561717E-01
H78 -3.410790370760E-01 -8.850527782185E-02  3.045138438283E-01
H79 -3.410790370760E-01 -4.114947221781E-01 -1.954861561717E-01
H80  3.410790370760E-01  8.850527782185E-02 -3.045138438283E-01
C81 -4.865208607709E-01 -4.306482231430E-01 -2.957377737853E-01
C82  4.865208607709E-01  6.935177685701E-02 -2.042622262147E-01
C83  4.865208607709E-01  4.306482231430E-01  2.957377737853E-01
C84 -4.865208607709E-01 -6.935177685701E-02  2.042622262147E-01
H85 -4.762445744401E-01 -3.741633695286E-01 -1.362149854881E-01
H86  4.762445744401E-01  1.258366304714E-01 -3.637850145119E-01
H87  4.762445744401E-01  3.741633695286E-01  1.362149854881E-01
H88 -4.762445744401E-01 -1.258366304714E-01  3.637850145119E-01


#===END

data_OPT_STEP_23

_symmetry_space_group_name_H-M 'P 1'
_cell_length_a     18.04602850
_cell_length_b      7.83582479
_cell_length_c      6.30781090
_cell_angle_alpha   90.000000
_cell_angle_beta   89.388851
_cell_angle_gamma   90.000000

loop_
_atom_site_label
_atom_site_fract_x
_atom_site_fract_y
_atom_site_fract_z
C1  1.604732409749E-01 -3.766840121007E-01  4.811813854184E-01
C2 -1.604732409749E-01  1.233159878993E-01  1.881861458164E-02
C3 -1.604732409749E-01  3.766840121007E-01 -4.811813854184E-01
C4  1.604732409749E-01 -1.233159878993E-01 -1.881861458164E-02
H5  1.771770162601E-01 -2.744992764536E-01 -4.067944565985E-01
H6 -1.771770162601E-01  2.255007235464E-01 -9.320554340145E-02
H7 -1.771770162601E-01  2.744992764536E-01  4.067944565985E-01
H8  1.771770162601E-01 -2.255007235464E-01  9.320554340145E-02
C9  8.717671714812E-02 -3.796186600075E-01  4.082681344135E-01
C10 -8.717671714812E-02  1.203813399925E-01  9.173186558647E-02
C11 -8.717671714812E-02  3.796186600075E-01 -4.082681344135E-01
C12  8.717671714812E-02 -1.203813399925E-01 -9.173186558647E-02
H13  4.738766085191E-02 -2.814294034504E-01  4.657705385625E-01
H14 -4.738766085191E-02  2.185705965496E-01  3.422946143751E-02
H15 -4.738766085191E-02  2.814294034504E-01 -4.657705385625E-01
H16  4.738766085191E-02 -2.185705965496E-01 -3.422946143751E-02
C17  6.464204006210E-02  4.959498718010E-01  2.612752282364E-01
C18 -6.464204006210E-02 -4.050128199007E-03  2.387247717636E-01
C19 -6.464204006210E-02 -4.959498718010E-01 -2.612752282364E-01
C20  6.464204006210E-02  4.050128199006E-03 -2.387247717636E-01
H21  6.562425108888E-03  4.939231903663E-01  2.043079928302E-01
H22 -6.562425108888E-03 -6.076809633683E-03  2.956920071698E-01
H23 -6.562425108888E-03 -4.939231903663E-01 -2.043079928302E-01
H24  6.562425108888E-03  6.076809633682E-03 -2.956920071698E-01
C25  1.162606649258E-01  3.744447359412E-01  1.879011270659E-01
C26 -1.162606649258E-01 -1.255552640588E-01  3.120988729341E-01
C27 -1.162606649258E-01 -3.744447359412E-01 -1.879011270659E-01
C28  1.162606649258E-01  1.255552640588E-01 -3.120988729341E-01
H29  9.920095503093E-02  2.737529787981E-01  7.464765906926E-02
H30 -9.920095503093E-02 -2.262470212019E-01  4.253523409307E-01
H31 -9.920095503093E-02 -2.737529787981E-01 -7.464765906926E-02
H32  9.920095503093E-02  2.262470212019E-01 -4.253523409307E-01
C33  1.895456644590E-01  3.764216312579E-01  2.620739817380E-01
C34 -1.895456644590E-01 -1.235783687421E-01  2.379260182620E-01
C35 -1.895456644590E-01 -3.764216312579E-01 -2.620739817380E-01
C36  1.895456644590E-01  1.235783687421E-01 -2.379260182620E-01
H37  2.287217916461E-01  2.759015554589E-01  2.083404042726E-01
H38 -2.287217916461E-01 -2.240984445411E-01  2.916595957274E-01
H39 -2.287217916461E-01 -2.759015554589E-01 -2.083404042726E-01
H40  2.287217916461E-01  2.240984445411E-01 -2.916595957274E-01
C41  2.129446118802E-01 -4.986433131627E-01  4.093203269890E-01
C42 -2.129446118802E-01  1.356686837268E-03  9.067967301101E-02
C43 -2.129446118802E-01  4.986433131627E-01 -4.093203269890E-01
C44  2.129446118802E-01 -1.356686837268E-03 -9.067967301101E-02
C45  2.909807397247E-01 -4.936003914144E-01  4.876850298253E-01
C46 -2.909807397247E-01  6.399608585633E-03  1.231497017466E-02
C47 -2.909807397247E-01  4.936003914144E-01 -4.876850298253E-01
C48  2.909807397247E-01 -6.399608585633E-03 -1.231497017466E-02
C49  3.057717133537E-01 -4.320888251759E-01 -3.002701572775E-01
C50 -3.057717133537E-01  6.791117482413E-02 -1.997298427225E-01
C51 -3.057717133537E-01  4.320888251759E-01  3.002701572775E-01
C52  3.057717133537E-01 -6.791117482413E-02  1.997298427225E-01
H53  2.585249070354E-01 -4.013288310686E-01 -1.921358936614E-01
H54 -2.585249070354E-01  9.867116893139E-02 -3.078641063386E-01
H55 -2.585249070354E-01  4.013288310686E-01  1.921358936614E-01
H56  2.585249070354E-01 -9.867116893139E-02  3.078641063386E-01
C57  3.772092808386E-01 -4.116597851501E-01 -2.292060398523E-01
C58 -3.772092808386E-01  8.834021484993E-02 -2.707939601477E-01
C59 -3.772092808386E-01  4.116597851501E-01  2.292060398523E-01
C60  3.772092808386E-01 -8.834021484994E-02  2.707939601477E-01
H61  3.871607478873E-01 -3.619297977029E-01 -6.683562861230E-02
H62 -3.871607478873E-01  1.380702022971E-01 -4.331643713877E-01
H63 -3.871607478873E-01  3.619297977029E-01  6.683562861230E-02
H64  3.871607478873E-01 -1.380702022971E-01  4.331643713877E-01
C65  4.398979448240E-01 -4.544022276170E-01 -3.627031211782E-01
C66 -4.398979448240E-01  4.559777238300E-02 -1.372968788218E-01
C67 -4.398979448240E-01  4.544022276170E-01  3.627031211782E-01
C68  4.398979448240E-01 -4.559777238300E-02  1.372968788218E-01
C69  4.257664824465E-01  4.760810468250E-01  4.280745440095E-01
C70 -4.257664824465E-01 -2.391895317497E-02  7.192545599047E-02
C71 -4.257664824465E-01 -4.760810468250E-01 -4.280745440095E-01
C72  4.257664824465E-01  2.391895317497E-02 -7.192545599047E-02
C73  3.503078251840E-01  4.580743989730E-01  3.592319595122E-01
C74 -3.503078251840E-01 -4.192560102698E-02  1.407680404878E-01
C75 -3.503078251840E-01 -4.580743989730E-01 -3.592319595122E-01
C76  3.503078251840E-01  4.192560102698E-02 -1.407680404878E-01
H77  3.409571387005E-01  4.115183291482E-01  1.948609760721E-01
H78 -3.409571387005E-01 -8.848167085178E-02  3.051390239279E-01
H79 -3.409571387005E-01 -4.115183291482E-01 -1.948609760721E-01
H80  3.409571387005E-01  8.848167085177E-02 -3.051390239279E-01
C81 -4.864212879438E-01 -4.311891446196E-01 -2.956152859616E-01
C82  4.864212879438E-01  6.881085538036E-02 -2.043847140384E-01
C83  4.864212879438E-01  4.311891446196E-01  2.956152859616E-01
C84 -4.864212879438E-01 -6.881085538036E-02  2.043847140384E-01
H85 -4.760569631772E-01 -3.756351422800E-01 -1.359732034811E-01
H86  4.760569631772E-01  1.243648577200E-01 -3.640267965189E-01
H87  4.760569631772E-01  3.756351422800E-01  1.359732034811E-01
H88 -4.760569631772E-01 -1.243648577200E-01  3.640267965189E-01


#===END

data_OPT_STEP_24

_symmetry_space_group_name_H-M 'P 1'
_cell_length_a     18.05812110
_cell_length_b      7.83739890
_cell_length_c      6.31300911
_cell_angle_alpha   90.000000
_cell_angle_beta   89.611739
_cell_angle_gamma   90.000000

loop_
_atom_site_label
_atom_site_fract_x
_atom_site_fract_y
_atom_site_fract_z
C1  1.605694346102E-01 -3.766066346251E-01  4.812190988216E-01
C2 -1.605694346102E-01  1.233933653749E-01  1.878090117844E-02
C3 -1.605694346102E-01  3.766066346251E-01 -4.812190988216E-01
C4  1.605694346102E-01 -1.233933653749E-01 -1.878090117844E-02
H5  1.774031299607E-01 -2.742906274632E-01 -4.069415737415E-01
H6 -1.774031299607E-01  2.257093725368E-01 -9.305842625853E-02
H7 -1.774031299607E-01  2.742906274632E-01  4.069415737415E-01
H8  1.774031299607E-01 -2.257093725368E-01  9.305842625853E-02
C9  8.723746794950E-02 -3.792428031427E-01  4.081325515689E-01
C10 -8.723746794950E-02  1.207571968573E-01  9.186744843115E-02
C11 -8.723746794950E-02  3.792428031427E-01 -4.081325515689E-01
C12  8.723746794950E-02 -1.207571968573E-01 -9.186744843115E-02
H13  4.758444459923E-02 -2.809637025235E-01  4.655559620194E-01
H14 -4.758444459923E-02  2.190362974765E-01  3.444403798063E-02
H15 -4.758444459923E-02  2.809637025235E-01 -4.655559620194E-01
H16  4.758444459923E-02 -2.190362974765E-01 -3.444403798063E-02
C17  6.454236238237E-02  4.964550654627E-01  2.610491100574E-01
C18 -6.454236238237E-02 -3.544934537333E-03  2.389508899426E-01
C19 -6.454236238237E-02 -4.964550654627E-01 -2.610491100574E-01
C20  6.454236238237E-02  3.544934537333E-03 -2.389508899426E-01
H21  6.387814025291E-03  4.943226211955E-01  2.043262815149E-01
H22 -6.387814025291E-03 -5.677378804458E-03  2.956737184851E-01
H23 -6.387814025291E-03 -4.943226211955E-01 -2.043262815149E-01
H24  6.387814025291E-03  5.677378804458E-03 -2.956737184851E-01
C25  1.160868060469E-01  3.750756472194E-01  1.873794939215E-01
C26 -1.160868060469E-01 -1.249243527806E-01  3.126205060785E-01
C27 -1.160868060469E-01 -3.750756472194E-01 -1.873794939215E-01
C28  1.160868060469E-01  1.249243527806E-01 -3.126205060785E-01
H29  9.896083877453E-02  2.746109731489E-01  7.385552142301E-02
H30 -9.896083877453E-02 -2.253890268511E-01  4.261444785770E-01
H31 -9.896083877453E-02 -2.746109731489E-01 -7.385552142301E-02
H32  9.896083877453E-02  2.253890268511E-01 -4.261444785770E-01
C33  1.894471319998E-01  3.772214079039E-01  2.613255852805E-01
C34 -1.894471319998E-01 -1.227785920961E-01  2.386744147195E-01
C35 -1.894471319998E-01 -3.772214079039E-01 -2.613255852805E-01
C36  1.894471319998E-01  1.227785920961E-01 -2.386744147195E-01
H37  2.285699964491E-01  2.767217181430E-01  2.071100745353E-01
H38 -2.285699964491E-01 -2.232782818570E-01  2.928899254647E-01
H39 -2.285699964491E-01 -2.767217181430E-01 -2.071100745353E-01
H40  2.285699964491E-01  2.232782818570E-01 -2.928899254647E-01
C41  2.129607258818E-01 -4.983319008589E-01  4.090771305788E-01
C42 -2.129607258818E-01  1.668099141107E-03  9.092286942116E-02
C43 -2.129607258818E-01  4.983319008589E-01 -4.090771305788E-01
C44  2.129607258818E-01 -1.668099141107E-03 -9.092286942116E-02
C45  2.910807591668E-01 -4.929734311709E-01  4.871790729737E-01
C46 -2.910807591668E-01  7.026568829137E-03  1.282092702628E-02
C47 -2.910807591668E-01  4.929734311709E-01 -4.871790729737E-01
C48  2.910807591668E-01 -7.026568829138E-03 -1.282092702628E-02
C49  3.061372797229E-01 -4.311382612652E-01 -3.010789959485E-01
C50 -3.061372797229E-01  6.886173873478E-02 -1.989210040515E-01
C51 -3.061372797229E-01  4.311382612652E-01  3.010789959485E-01
C52  3.061372797229E-01 -6.886173873478E-02  1.989210040515E-01
H53  2.590774462605E-01 -4.000810310086E-01 -1.932452989964E-01
H54 -2.590774462605E-01  9.991896899142E-02 -3.067547010036E-01
H55 -2.590774462605E-01  4.000810310086E-01  1.932452989964E-01
H56  2.590774462605E-01 -9.991896899142E-02  3.067547010036E-01
C57  3.776177635442E-01 -4.112898032614E-01 -2.298067807027E-01
C58 -3.776177635442E-01  8.871019673857E-02 -2.701932192973E-01
C59 -3.776177635442E-01  4.112898032614E-01  2.298067807027E-01
C60  3.776177635442E-01 -8.871019673857E-02  2.701932192973E-01
H61  3.878036658583E-01 -3.612689096034E-01 -6.768570849940E-02
H62 -3.878036658583E-01  1.387310903966E-01 -4.323142915006E-01
H63 -3.878036658583E-01  3.612689096034E-01  6.768570849940E-02
H64  3.878036658583E-01 -1.387310903966E-01  4.323142915006E-01
C65  4.401118159604E-01 -4.546768313123E-01 -3.628321486849E-01
C66 -4.401118159604E-01  4.532316868773E-02 -1.371678513151E-01
C67 -4.401118159604E-01  4.546768313123E-01  3.628321486849E-01
C68  4.401118159604E-01 -4.532316868773E-02  1.371678513151E-01
C69  4.257167198527E-01  4.761689111305E-01  4.279733528865E-01
C70 -4.257167198527E-01 -2.383108886955E-02  7.202664711352E-02
C71 -4.257167198527E-01 -4.761689111305E-01 -4.279733528865E-01
C72  4.257167198527E-01  2.383108886955E-02 -7.202664711352E-02
C73  3.502259521933E-01  4.594148076091E-01  3.585769483744E-01
C74 -3.502259521933E-01 -4.058519239086E-02  1.414230516256E-01
C75 -3.502259521933E-01 -4.594148076091E-01 -3.585769483744E-01
C76  3.502259521933E-01  4.058519239086E-02 -1.414230516256E-01
H77  3.406741412636E-01  4.126374173236E-01  1.943954010854E-01
H78 -3.406741412636E-01 -8.736258267636E-02  3.056045989146E-01
H79 -3.406741412636E-01 -4.126374173236E-01 -1.943954010854E-01
H80  3.406741412636E-01  8.736258267636E-02 -3.056045989146E-01
C81 -4.861688135157E-01 -4.314010491339E-01 -2.956798757826E-01
C82  4.861688135157E-01  6.859895086606E-02 -2.043201242174E-01
C83  4.861688135157E-01  4.314010491339E-01  2.956798757826E-01
C84 -4.861688135157E-01 -6.859895086606E-02  2.043201242174E-01
H85 -4.756054686923E-01 -3.774689695286E-01 -1.355057237798E-01
H86  4.756054686923E-01  1.225310304714E-01 -3.644942762202E-01
H87  4.756054686923E-01  3.774689695286E-01  1.355057237798E-01
H88 -4.756054686923E-01 -1.225310304714E-01  3.644942762202E-01


#===END

data_OPT_STEP_25

_symmetry_space_group_name_H-M 'P 1'
_cell_length_a     18.06781291
_cell_length_b      7.82591052
_cell_length_c      6.31443814
_cell_angle_alpha   90.000000
_cell_angle_beta   89.815255
_cell_angle_gamma   90.000000

loop_
_atom_site_label
_atom_site_fract_x
_atom_site_fract_y
_atom_site_fract_z
C1  1.607127844840E-01 -3.757496625334E-01  4.804628314135E-01
C2 -1.607127844840E-01  1.242503374666E-01  1.953716858647E-02
C3 -1.607127844840E-01  3.757496625334E-01 -4.804628314135E-01
C4  1.607127844840E-01 -1.242503374666E-01 -1.953716858647E-02
H5  1.775710556788E-01 -2.738629695345E-01 -4.071441211416E-01
H6 -1.775710556788E-01  2.261370304655E-01 -9.285587885837E-02
H7 -1.775710556788E-01  2.738629695345E-01  4.071441211416E-01
H8  1.775710556788E-01 -2.261370304655E-01  9.285587885837E-02
C9  8.729954211689E-02 -3.786481409625E-01  4.074991295496E-01
C10 -8.729954211689E-02  1.213518590375E-01  9.250087045043E-02
C11 -8.729954211689E-02  3.786481409625E-01 -4.074991295496E-01
C12  8.729954211689E-02 -1.213518590375E-01 -9.250087045043E-02
H13  4.766017024514E-02 -2.808696757173E-01  4.653174030001E-01
H14 -4.766017024514E-02  2.191303242827E-01  3.468259699994E-02
H15 -4.766017024514E-02  2.808696757173E-01 -4.653174030001E-01
H16  4.766017024514E-02 -2.191303242827E-01 -3.468259699994E-02
C17  6.453585590480E-02  4.972389274253E-01  2.600654329210E-01
C18 -6.453585590480E-02 -2.761072574691E-03  2.399345670790E-01
C19 -6.453585590480E-02 -4.972389274253E-01 -2.600654329210E-01
C20  6.453585590480E-02  2.761072574691E-03 -2.399345670790E-01
H21  6.260627509770E-03  4.947757704256E-01  2.039697567784E-01
H22 -6.260627509770E-03 -5.224229574402E-03  2.960302432217E-01
H23 -6.260627509770E-03 -4.947757704256E-01 -2.039697567784E-01
H24  6.260627509770E-03  5.224229574402E-03 -2.960302432217E-01
C25  1.160748666879E-01  3.760490697239E-01  1.858855627892E-01
C26 -1.160748666879E-01 -1.239509302761E-01  3.141144372108E-01
C27 -1.160748666879E-01 -3.760490697239E-01 -1.858855627892E-01
C28  1.160748666879E-01  1.239509302761E-01 -3.141144372108E-01
H29  9.892457696190E-02  2.759222329034E-01  7.170670712876E-02
H30 -9.892457696190E-02 -2.240777670966E-01  4.282932928712E-01
H31 -9.892457696190E-02 -2.759222329034E-01 -7.170670712876E-02
H32  9.892457696190E-02  2.240777670966E-01 -4.282932928712E-01
C33  1.894816805885E-01  3.780925672005E-01  2.599711909663E-01
C34 -1.894816805885E-01 -1.219074327995E-01  2.400288090337E-01
C35 -1.894816805885E-01 -3.780925672005E-01 -2.599711909663E-01
C36  1.894816805885E-01  1.219074327995E-01 -2.400288090337E-01
H37  2.286184978129E-01  2.776288789418E-01  2.051592776060E-01
H38 -2.286184978129E-01 -2.223711210582E-01  2.948407223940E-01
H39 -2.286184978129E-01 -2.776288789418E-01 -2.051592776060E-01
H40  2.286184978129E-01  2.223711210582E-01 -2.948407223940E-01
C41  2.130427097688E-01 -4.977577687589E-01  4.083603205107E-01
C42 -2.130427097688E-01  2.242231241098E-03  9.163967948931E-02
C43 -2.130427097688E-01  4.977577687589E-01 -4.083603205107E-01
C44  2.130427097688E-01 -2.242231241098E-03 -9.163967948931E-02
C45  2.911866213170E-01 -4.927643765618E-01  4.867983461650E-01
C46 -2.911866213170E-01  7.235623438190E-03  1.320165383504E-02
C47 -2.911866213170E-01  4.927643765618E-01 -4.867983461650E-01
C48  2.911866213170E-01 -7.235623438190E-03 -1.320165383504E-02
C49  3.064577785135E-01 -4.307872444773E-01 -3.014731662125E-01
C50 -3.064577785135E-01  6.921275552266E-02 -1.985268337875E-01
C51 -3.064577785135E-01  4.307872444773E-01  3.014731662125E-01
C52  3.064577785135E-01 -6.921275552266E-02  1.985268337875E-01
H53  2.595502997700E-01 -4.000451220848E-01 -1.936238767403E-01
H54 -2.595502997700E-01  9.995487791523E-02 -3.063761232597E-01
H55 -2.595502997700E-01  4.000451220848E-01  1.936238767403E-01
H56  2.595502997700E-01 -9.995487791523E-02  3.063761232597E-01
C57  3.779712260549E-01 -4.114517538546E-01 -2.299139336503E-01
C58 -3.779712260549E-01  8.854824614535E-02 -2.700860663497E-01
C59 -3.779712260549E-01  4.114517538546E-01  2.299139336503E-01
C60  3.779712260549E-01 -8.854824614535E-02  2.700860663497E-01
H61  3.883573892811E-01 -3.612646738416E-01 -6.785538344335E-02
H62 -3.883573892811E-01  1.387353261584E-01 -4.321446165567E-01
H63 -3.883573892811E-01  3.612646738416E-01  6.785538344335E-02
H64  3.883573892811E-01 -1.387353261584E-01  4.321446165567E-01
C65  4.402967992384E-01 -4.544634377070E-01 -3.630028678677E-01
C66 -4.402967992384E-01  4.553656229297E-02 -1.369971321323E-01
C67 -4.402967992384E-01  4.544634377070E-01  3.630028678677E-01
C68  4.402967992384E-01 -4.553656229297E-02  1.369971321323E-01
C69  4.256859749837E-01  4.753903721199E-01  4.282087036616E-01
C70 -4.256859749837E-01 -2.460962788006E-02  7.179129633840E-02
C71 -4.256859749837E-01 -4.753903721199E-01 -4.282087036616E-01
C72  4.256859749837E-01  2.460962788006E-02 -7.179129633840E-02
C73  3.501585303388E-01  4.587464540617E-01  3.586731664381E-01
C74 -3.501585303388E-01 -4.125354593829E-02  1.413268335619E-01
C75 -3.501585303388E-01 -4.587464540617E-01 -3.586731664381E-01
C76  3.501585303388E-01  4.125354593829E-02 -1.413268335619E-01
H77  3.404220304747E-01  4.118052668398E-01  1.945409362900E-01
H78 -3.404220304747E-01 -8.819473316019E-02  3.054590637100E-01
H79 -3.404220304747E-01 -4.118052668398E-01 -1.945409362900E-01
H80  3.404220304747E-01  8.819473316019E-02 -3.054590637100E-01
C81 -4.859545251330E-01 -4.305066165973E-01 -2.960436388392E-01
C82  4.859545251330E-01  6.949338340268E-02 -2.039563611608E-01
C83  4.859545251330E-01  4.305066165973E-01  2.960436388392E-01
C84 -4.859545251330E-01 -6.949338340268E-02  2.039563611608E-01
H85 -4.752101080688E-01 -3.757096095012E-01 -1.362555812541E-01
H86  4.752101080688E-01  1.242903904988E-01 -3.637444187459E-01
H87  4.752101080688E-01  3.757096095012E-01  1.362555812541E-01
H88 -4.752101080688E-01 -1.242903904988E-01  3.637444187459E-01


#===END

data_OPT_STEP_26

_symmetry_space_group_name_H-M 'P 1'
_cell_length_a     18.08339477
_cell_length_b      7.79550139
_cell_length_c      6.30657395
_cell_angle_alpha   90.000000
_cell_angle_beta   90.198003
_cell_angle_gamma   90.000000

loop_
_atom_site_label
_atom_site_fract_x
_atom_site_fract_y
_atom_site_fract_z
C1  1.605938989398E-01 -3.773309291189E-01  4.824805396502E-01
C2 -1.605938989398E-01  1.226690708811E-01  1.751946034978E-02
C3 -1.605938989398E-01  3.773309291189E-01 -4.824805396502E-01
C4  1.605938989398E-01 -1.226690708811E-01 -1.751946034978E-02
H5  1.775771915724E-01 -2.754543990224E-01 -4.046195535393E-01
H6 -1.775771915724E-01  2.245456009776E-01 -9.538044646070E-02
H7 -1.775771915724E-01  2.754543990224E-01  4.046195535393E-01
H8  1.775771915724E-01 -2.245456009776E-01  9.538044646070E-02
C9  8.715822844691E-02 -3.797177825931E-01  4.086330193500E-01
C10 -8.715822844691E-02  1.202822174069E-01  9.136698065003E-02
C11 -8.715822844691E-02  3.797177825931E-01 -4.086330193500E-01
C12  8.715822844691E-02 -1.202822174069E-01 -9.136698065003E-02
H13  4.756770056372E-02 -2.822343986650E-01  4.672277041114E-01
H14 -4.756770056372E-02  2.177656013350E-01  3.277229588863E-02
H15 -4.756770056372E-02  2.822343986650E-01 -4.672277041114E-01
H16  4.756770056372E-02 -2.177656013350E-01 -3.277229588863E-02
C17  6.430989581174E-02  4.966178633892E-01  2.598592066773E-01
C18 -6.430989581174E-02 -3.382136610750E-03  2.401407933227E-01
C19 -6.430989581174E-02 -4.966178633892E-01 -2.598592066773E-01
C20  6.430989581174E-02  3.382136610750E-03 -2.401407933227E-01
H21  5.859271871797E-03  4.940560821464E-01  2.040575010052E-01
H22 -5.859271871797E-03 -5.943917853632E-03  2.959424989948E-01
H23 -5.859271871797E-03 -4.940560821464E-01 -2.040575010052E-01
H24  5.859271871797E-03  5.943917853632E-03 -2.959424989948E-01
C25  1.158193250157E-01  3.752620581280E-01  1.849090501801E-01
C26 -1.158193250157E-01 -1.247379418720E-01  3.150909498199E-01
C27 -1.158193250157E-01 -3.752620581280E-01 -1.849090501801E-01
C28  1.158193250157E-01  1.247379418720E-01 -3.150909498199E-01
H29  9.869347749889E-02  2.761763605250E-01  6.868894575496E-02
H30 -9.869347749889E-02 -2.238236394750E-01  4.313110542450E-01
H31 -9.869347749889E-02 -2.761763605250E-01 -6.868894575496E-02
H32  9.869347749889E-02  2.238236394750E-01 -4.313110542450E-01
C33  1.892451840642E-01  3.767686762602E-01  2.599314679662E-01
C34 -1.892451840642E-01 -1.232313237398E-01  2.400685320338E-01
C35 -1.892451840642E-01 -3.767686762602E-01 -2.599314679662E-01
C36  1.892451840642E-01  1.232313237398E-01 -2.400685320338E-01
H37  2.283873638572E-01  2.767660111958E-01  2.038747698695E-01
H38 -2.283873638572E-01 -2.232339888042E-01  2.961252301305E-01
H39 -2.283873638572E-01 -2.767660111958E-01 -2.038747698695E-01
H40  2.283873638572E-01  2.232339888042E-01 -2.961252301305E-01
C41  2.129453591287E-01 -4.987870121041E-01  4.092937420897E-01
C42 -2.129453591287E-01  1.212987895853E-03  9.070625791032E-02
C43 -2.129453591287E-01  4.987870121041E-01 -4.092937420897E-01
C44  2.129453591287E-01 -1.212987895853E-03 -9.070625791032E-02
C45  2.913267029871E-01 -4.920053335858E-01  4.868517608055E-01
C46 -2.913267029871E-01  7.994666414210E-03  1.314823919446E-02
C47 -2.913267029871E-01  4.920053335858E-01 -4.868517608055E-01
C48  2.913267029871E-01 -7.994666414210E-03 -1.314823919446E-02
C49  3.071428882924E-01 -4.288735404100E-01 -3.014830515290E-01
C50 -3.071428882924E-01  7.112645959001E-02 -1.985169484710E-01
C51 -3.071428882924E-01  4.288735404100E-01  3.014830515290E-01
C52  3.071428882924E-01 -7.112645959001E-02  1.985169484710E-01
H53  2.605594822735E-01 -3.987305817821E-01 -1.932442042912E-01
H54 -2.605594822735E-01  1.012694182179E-01 -3.067557957088E-01
H55 -2.605594822735E-01  3.987305817821E-01  1.932442042912E-01
H56  2.605594822735E-01 -1.012694182179E-01  3.067557957088E-01
C57  3.787634985850E-01 -4.093634439259E-01 -2.300403443925E-01
C58 -3.787634985850E-01  9.063655607410E-02 -2.699596556075E-01
C59 -3.787634985850E-01  4.093634439259E-01  2.300403443925E-01
C60  3.787634985850E-01 -9.063655607410E-02  2.699596556075E-01
H61  3.896019567735E-01 -3.593145869589E-01 -6.760560461750E-02
H62 -3.896019567735E-01  1.406854130411E-01 -4.323943953825E-01
H63 -3.896019567735E-01  3.593145869589E-01  6.760560461750E-02
H64  3.896019567735E-01 -1.406854130411E-01  4.323943953825E-01
C65  4.407063047544E-01 -4.539720893458E-01 -3.627961744049E-01
C66 -4.407063047544E-01  4.602791065423E-02 -1.372038255951E-01
C67 -4.407063047544E-01  4.539720893458E-01  3.627961744049E-01
C68  4.407063047544E-01 -4.602791065423E-02  1.372038255951E-01
C69  4.255777765895E-01  4.757940430474E-01  4.280393489794E-01
C70 -4.255777765895E-01 -2.420595695264E-02  7.196065102063E-02
C71 -4.255777765895E-01 -4.757940430474E-01 -4.280393489794E-01
C72  4.255777765895E-01  2.420595695264E-02 -7.196065102063E-02
C73  3.499342171785E-01  4.592804531674E-01  3.584880422568E-01
C74 -3.499342171785E-01 -4.071954683255E-02  1.415119577432E-01
C75 -3.499342171785E-01 -4.592804531674E-01 -3.584880422568E-01
C76  3.499342171785E-01  4.071954683255E-02 -1.415119577432E-01
H77  3.398065436915E-01  4.126820354909E-01  1.938689235679E-01
H78 -3.398065436915E-01 -8.731796450910E-02  3.061310764321E-01
H79 -3.398065436915E-01 -4.126820354909E-01 -1.938689235679E-01
H80  3.398065436915E-01  8.731796450910E-02 -3.061310764321E-01
C81 -4.854460659229E-01 -4.305597165697E-01 -2.955920115771E-01
C82  4.854460659229E-01  6.944028343034E-02 -2.044079884229E-01
C83  4.854460659229E-01  4.305597165697E-01  2.955920115771E-01
C84 -4.854460659229E-01 -6.944028343034E-02  2.044079884229E-01
H85 -4.742874666079E-01 -3.739069074330E-01 -1.363880973672E-01
H86  4.742874666079E-01  1.260930925670E-01 -3.636119026328E-01
H87  4.742874666079E-01  3.739069074330E-01  1.363880973672E-01
H88 -4.742874666079E-01 -1.260930925670E-01  3.636119026328E-01


#===END

data_OPT_STEP_27

_symmetry_space_group_name_H-M 'P 1'
_cell_length_a     18.08205029
_cell_length_b      7.79303304
_cell_length_c      6.30584424
_cell_angle_alpha   90.000000
_cell_angle_beta   90.281239
_cell_angle_gamma   90.000000

loop_
_atom_site_label
_atom_site_fract_x
_atom_site_fract_y
_atom_site_fract_z
C1  1.606437356760E-01 -3.772259135591E-01  4.821700675894E-01
C2 -1.606437356760E-01  1.227740864409E-01  1.782993241062E-02
C3 -1.606437356760E-01  3.772259135591E-01 -4.821700675894E-01
C4  1.606437356760E-01 -1.227740864409E-01 -1.782993241062E-02
H5  1.776657632916E-01 -2.755877057919E-01 -4.046905990608E-01
H6 -1.776657632916E-01  2.244122942081E-01 -9.530940093919E-02
H7 -1.776657632916E-01  2.755877057919E-01  4.046905990608E-01
H8  1.776657632916E-01 -2.244122942081E-01  9.530940093919E-02
C9  8.710890426046E-02 -3.800973453020E-01  4.088623227772E-01
C10 -8.710890426046E-02  1.199026546980E-01  9.113767722280E-02
C11 -8.710890426046E-02  3.800973453020E-01 -4.088623227772E-01
C12  8.710890426046E-02 -1.199026546980E-01 -9.113767722280E-02
H13  4.752444651892E-02 -2.827807329638E-01  4.679469854691E-01
H14 -4.752444651892E-02  2.172192670362E-01  3.205301453093E-02
H15 -4.752444651892E-02  2.827807329638E-01 -4.679469854691E-01
H16  4.752444651892E-02 -2.172192670362E-01 -3.205301453093E-02
C17  6.415183724336E-02  4.959450995516E-01  2.601443006952E-01
C18 -6.415183724336E-02 -4.054900448354E-03  2.398556993048E-01
C19 -6.415183724336E-02 -4.959450995516E-01 -2.601443006952E-01
C20  6.415183724336E-02  4.054900448353E-03 -2.398556993048E-01
H21  5.661954221191E-03  4.934907615241E-01  2.043206792967E-01
H22 -5.661954221191E-03 -6.509238475931E-03  2.956793207033E-01
H23 -5.661954221191E-03 -4.934907615241E-01 -2.043206792967E-01
H24  5.661954221191E-03  6.509238475931E-03 -2.956793207033E-01
C25  1.157063527033E-01  3.752472259219E-01  1.842911822268E-01
C26 -1.157063527033E-01 -1.247527740781E-01  3.157088177732E-01
C27 -1.157063527033E-01 -3.752472259219E-01 -1.842911822268E-01
C28  1.157063527033E-01  1.247527740781E-01 -3.157088177732E-01
H29  9.853186341440E-02  2.762231441713E-01  6.774542697294E-02
H30 -9.853186341440E-02 -2.237768558287E-01  4.322545730271E-01
H31 -9.853186341440E-02 -2.762231441713E-01 -6.774542697294E-02
H32  9.853186341440E-02  2.237768558287E-01 -4.322545730271E-01
C33  1.892227522808E-01  3.772972551532E-01  2.587700858409E-01
C34 -1.892227522808E-01 -1.227027448468E-01  2.412299141591E-01
C35 -1.892227522808E-01 -3.772972551532E-01 -2.587700858409E-01
C36  1.892227522808E-01  1.227027448468E-01 -2.412299141591E-01
H37  2.283348579960E-01  2.773402442861E-01  2.024783632224E-01
H38 -2.283348579960E-01 -2.226597557139E-01  2.975216367776E-01
H39 -2.283348579960E-01 -2.773402442861E-01 -2.024783632224E-01
H40  2.283348579960E-01  2.226597557139E-01 -2.975216367776E-01
C41  2.129412912631E-01 -4.989016703783E-01  4.089174610213E-01
C42 -2.129412912631E-01  1.098329621674E-03  9.108253897868E-02
C43 -2.129412912631E-01  4.989016703783E-01 -4.089174610213E-01
C44  2.129412912631E-01 -1.098329621674E-03 -9.108253897868E-02
C45  2.913266105083E-01 -4.927305169971E-01  4.868665632388E-01
C46 -2.913266105083E-01  7.269483002940E-03  1.313343676118E-02
C47 -2.913266105083E-01  4.927305169971E-01 -4.868665632388E-01
C48  2.913266105083E-01 -7.269483002940E-03 -1.313343676118E-02
C49  3.072104420504E-01 -4.300143384826E-01 -3.012421001046E-01
C50 -3.072104420504E-01  6.998566151742E-02 -1.987578998954E-01
C51 -3.072104420504E-01  4.300143384826E-01  3.012421001046E-01
C52  3.072104420504E-01 -6.998566151742E-02  1.987578998954E-01
H53  2.606746725696E-01 -3.994479933136E-01 -1.932148348986E-01
H54 -2.606746725696E-01  1.005520066864E-01 -3.067851651014E-01
H55 -2.606746725696E-01  3.994479933136E-01  1.932148348986E-01
H56  2.606746725696E-01 -1.005520066864E-01  3.067851651014E-01
C57  3.788521136400E-01 -4.104082756674E-01 -2.297391836851E-01
C58 -3.788521136400E-01  8.959172433261E-02 -2.702608163149E-01
C59 -3.788521136400E-01  4.104082756674E-01  2.297391836851E-01
C60  3.788521136400E-01 -8.959172433261E-02  2.702608163149E-01
H61  3.897681008965E-01 -3.602239995327E-01 -6.731901110437E-02
H62 -3.897681008965E-01  1.397760004673E-01 -4.326809888956E-01
H63 -3.897681008965E-01  3.602239995327E-01  6.731901110437E-02
H64  3.897681008965E-01 -1.397760004673E-01  4.326809888956E-01
C65  4.407499397547E-01 -4.543885028897E-01 -3.626662117953E-01
C66 -4.407499397547E-01  4.561149711029E-02 -1.373337882047E-01
C67 -4.407499397547E-01  4.543885028897E-01  3.626662117953E-01
C68  4.407499397547E-01 -4.561149711029E-02  1.373337882047E-01
C69  4.255687697135E-01  4.752290066339E-01  4.281853222514E-01
C70 -4.255687697135E-01 -2.477099336609E-02  7.181467774855E-02
C71 -4.255687697135E-01 -4.752290066339E-01 -4.281853222514E-01
C72  4.255687697135E-01  2.477099336609E-02 -7.181467774855E-02
C73  3.499001711065E-01  4.586209359217E-01  3.585700284092E-01
C74 -3.499001711065E-01 -4.137906407834E-02  1.414299715908E-01
C75 -3.499001711065E-01 -4.586209359217E-01 -3.585700284092E-01
C76  3.499001711065E-01  4.137906407834E-02 -1.414299715908E-01
H77  3.397131503301E-01  4.119324678649E-01  1.939721810914E-01
H78 -3.397131503301E-01 -8.806753213506E-02  3.060278189086E-01
H79 -3.397131503301E-01 -4.119324678649E-01 -1.939721810914E-01
H80  3.397131503301E-01  8.806753213506E-02 -3.060278189086E-01
C81 -4.854003348061E-01 -4.302187714174E-01 -2.956813875597E-01
C82  4.854003348061E-01  6.978122858261E-02 -2.043186124403E-01
C83  4.854003348061E-01  4.302187714174E-01  2.956813875597E-01
C84 -4.854003348061E-01 -6.978122858261E-02  2.043186124403E-01
H85 -4.741758649739E-01 -3.739811747442E-01 -1.362174157790E-01
H86  4.741758649739E-01  1.260188252558E-01 -3.637825842210E-01
H87  4.741758649739E-01  3.739811747442E-01  1.362174157790E-01
H88 -4.741758649739E-01 -1.260188252558E-01  3.637825842210E-01


#===END

data_OPT_STEP_28

_symmetry_space_group_name_H-M 'P 1'
_cell_length_a     18.08160461
_cell_length_b      7.78590453
_cell_length_c      6.30888593
_cell_angle_alpha   90.000000
_cell_angle_beta   90.488354
_cell_angle_gamma   90.000000

loop_
_atom_site_label
_atom_site_fract_x
_atom_site_fract_y
_atom_site_fract_z
C1  1.605508496776E-01 -3.776326636563E-01  4.824241244788E-01
C2 -1.605508496776E-01  1.223673363437E-01  1.757587552125E-02
C3 -1.605508496776E-01  3.776326636563E-01 -4.824241244788E-01
C4  1.605508496776E-01 -1.223673363437E-01 -1.757587552125E-02
H5  1.776995516232E-01 -2.756528892342E-01 -4.046052152327E-01
H6 -1.776995516232E-01  2.243471107658E-01 -9.539478476730E-02
H7 -1.776995516232E-01  2.756528892342E-01  4.046052152327E-01
H8  1.776995516232E-01 -2.243471107658E-01  9.539478476730E-02
C9  8.683666932470E-02 -3.814009893547E-01  4.099727289774E-01
C10 -8.683666932470E-02  1.185990106453E-01  9.002727102260E-02
C11 -8.683666932470E-02  3.814009893547E-01 -4.099727289774E-01
C12  8.683666932470E-02 -1.185990106453E-01 -9.002727102260E-02
H13  4.724249194498E-02 -2.842616020828E-01  4.696798840384E-01
H14 -4.724249194498E-02  2.157383979172E-01  3.032011596160E-02
H15 -4.724249194498E-02  2.842616020828E-01 -4.696798840384E-01
H16  4.724249194498E-02 -2.157383979172E-01 -3.032011596160E-02
C17  6.386204301338E-02  4.957434244771E-01  2.599340517611E-01
C18 -6.386204301338E-02 -4.256575522912E-03  2.400659482389E-01
C19 -6.386204301338E-02 -4.957434244771E-01 -2.599340517611E-01
C20  6.386204301338E-02  4.256575522912E-03 -2.400659482389E-01
H21  5.290343913489E-03  4.930157793078E-01  2.042280900132E-01
H22 -5.290343913489E-03 -6.984220692209E-03  2.957719099868E-01
H23 -5.290343913489E-03 -4.930157793078E-01 -2.042280900132E-01
H24  5.290343913489E-03  6.984220692209E-03 -2.957719099868E-01
C25  1.154114827963E-01  3.754156709665E-01  1.834224897126E-01
C26 -1.154114827963E-01 -1.245843290335E-01  3.165775102874E-01
C27 -1.154114827963E-01 -3.754156709665E-01 -1.834224897126E-01
C28  1.154114827963E-01  1.245843290335E-01 -3.165775102874E-01
H29  9.817523752548E-02  2.765610510970E-01  6.629742032182E-02
H30 -9.817523752548E-02 -2.234389489030E-01  4.337025796782E-01
H31 -9.817523752548E-02 -2.765610510970E-01 -6.629742032182E-02
H32  9.817523752548E-02  2.234389489030E-01 -4.337025796782E-01
C33  1.890236267104E-01  3.777508050983E-01  2.576546391264E-01
C34 -1.890236267104E-01 -1.222491949017E-01  2.423453608736E-01
C35 -1.890236267104E-01 -3.777508050983E-01 -2.576546391264E-01
C36  1.890236267104E-01  1.222491949017E-01 -2.423453608736E-01
H37  2.281229933102E-01  2.781987624126E-01  2.007841861977E-01
H38 -2.281229933102E-01 -2.218012375874E-01  2.992158138023E-01
H39 -2.281229933102E-01 -2.781987624126E-01 -2.007841861977E-01
H40  2.281229933102E-01  2.218012375874E-01 -2.992158138023E-01
C41  2.129035826743E-01 -4.984005633879E-01  4.080555591430E-01
C42 -2.129035826743E-01  1.599436612098E-03  9.194444085702E-02
C43 -2.129035826743E-01  4.984005633879E-01 -4.080555591430E-01
C44  2.129035826743E-01 -1.599436612098E-03 -9.194444085702E-02
C45  2.913258259121E-01 -4.930494431016E-01  4.865393722986E-01
C46 -2.913258259121E-01  6.950556898365E-03  1.346062770140E-02
C47 -2.913258259121E-01  4.930494431016E-01 -4.865393722986E-01
C48  2.913258259121E-01 -6.950556898366E-03 -1.346062770140E-02
C49  3.073958203695E-01 -4.313002126758E-01 -3.012160117345E-01
C50 -3.073958203695E-01  6.869978732419E-02 -1.987839882655E-01
C51 -3.073958203695E-01  4.313002126758E-01  3.012160117345E-01
C52  3.073958203695E-01 -6.869978732419E-02  1.987839882655E-01
H53  2.609696284794E-01 -4.001434543507E-01 -1.935099541748E-01
H54 -2.609696284794E-01  9.985654564926E-02 -3.064900458252E-01
H55 -2.609696284794E-01  4.001434543507E-01  1.935099541748E-01
H56  2.609696284794E-01 -9.985654564926E-02  3.064900458252E-01
C57  3.791080327849E-01 -4.124187668234E-01 -2.292819444263E-01
C58 -3.791080327849E-01  8.758123317664E-02 -2.707180555737E-01
C59 -3.791080327849E-01  4.124187668234E-01  2.292819444263E-01
C60  3.791080327849E-01 -8.758123317664E-02  2.707180555737E-01
H61  3.902119383404E-01 -3.620005340525E-01 -6.697895875048E-02
H62 -3.902119383404E-01  1.379994659475E-01 -4.330210412495E-01
H63 -3.902119383404E-01  3.620005340525E-01  6.697895875048E-02
H64  3.902119383404E-01 -1.379994659475E-01  4.330210412495E-01
C65  4.408755973658E-01 -4.550183803773E-01 -3.626036663085E-01
C66 -4.408755973658E-01  4.498161962272E-02 -1.373963336915E-01
C67 -4.408755973658E-01  4.550183803773E-01  3.626036663085E-01
C68  4.408755973658E-01 -4.498161962272E-02  1.373963336915E-01
C69  4.255042516645E-01  4.742359423376E-01  4.284667431821E-01
C70 -4.255042516645E-01 -2.576405766242E-02  7.153325681786E-02
C71 -4.255042516645E-01 -4.742359423376E-01 -4.284667431821E-01
C72  4.255042516645E-01  2.576405766242E-02 -7.153325681786E-02
C73  3.497702054570E-01  4.578862492468E-01  3.586063082283E-01
C74 -3.497702054570E-01 -4.211375075318E-02  1.413936917717E-01
C75 -3.497702054570E-01 -4.578862492468E-01 -3.586063082283E-01
C76  3.497702054570E-01  4.211375075318E-02 -1.413936917717E-01
H77  3.394208681418E-01  4.109492429466E-01  1.941526391867E-01
H78 -3.394208681418E-01 -8.905075705336E-02  3.058473608133E-01
H79 -3.394208681418E-01 -4.109492429466E-01 -1.941526391867E-01
H80  3.394208681418E-01  8.905075705336E-02 -3.058473608133E-01
C81 -4.852140658978E-01 -4.304286586071E-01 -2.956352112826E-01
C82  4.852140658978E-01  6.957134139292E-02 -2.043647887174E-01
C83  4.852140658978E-01  4.304286586071E-01  2.956352112826E-01
C84 -4.852140658978E-01 -6.957134139292E-02  2.043647887174E-01
H85 -4.738264972211E-01 -3.756194137354E-01 -1.354821957885E-01
H86  4.738264972211E-01  1.243805862646E-01 -3.645178042115E-01
H87  4.738264972211E-01  3.756194137354E-01  1.354821957885E-01
H88 -4.738264972211E-01 -1.243805862646E-01  3.645178042115E-01


#===END

data_OPT_STEP_29

_symmetry_space_group_name_H-M 'P 1'
_cell_length_a     18.08513727
_cell_length_b      7.79523190
_cell_length_c      6.30820480
_cell_angle_alpha   90.000000
_cell_angle_beta   90.715548
_cell_angle_gamma   90.000000

loop_
_atom_site_label
_atom_site_fract_x
_atom_site_fract_y
_atom_site_fract_z
C1  1.605691960345E-01 -3.773831981950E-01  4.823347514340E-01
C2 -1.605691960345E-01  1.226168018050E-01  1.766524856603E-02
C3 -1.605691960345E-01  3.773831981950E-01 -4.823347514340E-01
C4  1.605691960345E-01 -1.226168018050E-01 -1.766524856603E-02
H5  1.777983654525E-01 -2.758734152545E-01 -4.041644626295E-01
H6 -1.777983654525E-01  2.241265847455E-01 -9.583553737046E-02
H7 -1.777983654525E-01  2.758734152545E-01  4.041644626295E-01
H8  1.777983654525E-01 -2.241265847455E-01  9.583553737046E-02
C9  8.676994686268E-02 -3.810021096639E-01  4.098444012342E-01
C10 -8.676994686268E-02  1.189978903361E-01  9.015559876584E-02
C11 -8.676994686268E-02  3.810021096639E-01 -4.098444012342E-01
C12  8.676994686268E-02 -1.189978903361E-01 -9.015559876584E-02
H13  4.718145958160E-02 -2.843812492010E-01  4.703565336836E-01
H14 -4.718145958160E-02  2.156187507990E-01  2.964346631640E-02
H15 -4.718145958160E-02  2.843812492010E-01 -4.703565336836E-01
H16  4.718145958160E-02 -2.156187507990E-01 -2.964346631640E-02
C17  6.359186616944E-02  4.960423409733E-01  2.596937095065E-01
C18 -6.359186616944E-02 -3.957659026659E-03  2.403062904935E-01
C19 -6.359186616944E-02 -4.960423409733E-01 -2.596937095065E-01
C20  6.359186616944E-02  3.957659026659E-03 -2.403062904935E-01
H21  4.941249155453E-03  4.930620963375E-01  2.041742069821E-01
H22 -4.941249155453E-03 -6.937903662544E-03  2.958257930179E-01
H23 -4.941249155453E-03 -4.930620963375E-01 -2.041742069821E-01
H24  4.941249155453E-03  6.937903662544E-03 -2.958257930179E-01
C25  1.151295983860E-01  3.765296541247E-01  1.821981570351E-01
C26 -1.151295983860E-01 -1.234703458753E-01  3.178018429649E-01
C27 -1.151295983860E-01 -3.765296541247E-01 -1.821981570351E-01
C28  1.151295983860E-01  1.234703458753E-01 -3.178018429649E-01
H29  9.782723790787E-02  2.782216235446E-01  6.428022279506E-02
H30 -9.782723790787E-02 -2.217783764554E-01  4.357197772049E-01
H31 -9.782723790787E-02 -2.782216235446E-01 -6.428022279506E-02
H32  9.782723790787E-02  2.217783764554E-01 -4.357197772049E-01
C33  1.888275147624E-01  3.789239097266E-01  2.563294724777E-01
C34 -1.888275147624E-01 -1.210760902734E-01  2.436705275223E-01
C35 -1.888275147624E-01 -3.789239097266E-01 -2.563294724777E-01
C36  1.888275147624E-01  1.210760902734E-01 -2.436705275223E-01
H37  2.278979805599E-01  2.798411735335E-01  1.988122791290E-01
H38 -2.278979805599E-01 -2.201588264665E-01  3.011877208710E-01
H39 -2.278979805599E-01 -2.798411735335E-01 -1.988122791290E-01
H40  2.278979805599E-01  2.201588264665E-01 -3.011877208710E-01
C41  2.128325629105E-01 -4.980345425794E-01  4.076314278548E-01
C42 -2.128325629105E-01  1.965457420586E-03  9.236857214516E-02
C43 -2.128325629105E-01  4.980345425794E-01 -4.076314278548E-01
C44  2.128325629105E-01 -1.965457420586E-03 -9.236857214516E-02
C45  2.913247961579E-01 -4.931669518604E-01  4.863766279740E-01
C46 -2.913247961579E-01  6.833048139571E-03  1.362337202603E-02
C47 -2.913247961579E-01  4.931669518604E-01 -4.863766279740E-01
C48  2.913247961579E-01 -6.833048139571E-03 -1.362337202603E-02
C49  3.076649547964E-01 -4.316450549389E-01 -3.012717054965E-01
C50 -3.076649547964E-01  6.835494506110E-02 -1.987282945035E-01
C51 -3.076649547964E-01  4.316450549389E-01  3.012717054965E-01
C52  3.076649547964E-01 -6.835494506110E-02  1.987282945035E-01
H53  2.613867885964E-01 -4.003934288135E-01 -1.936049591857E-01
H54 -2.613867885964E-01  9.960657118654E-02 -3.063950408143E-01
H55 -2.613867885964E-01  4.003934288135E-01  1.936049591857E-01
H56  2.613867885964E-01 -9.960657118655E-02  3.063950408143E-01
C57  3.794604603450E-01 -4.126822848488E-01 -2.292831698459E-01
C58 -3.794604603450E-01  8.731771515116E-02 -2.707168301541E-01
C59 -3.794604603450E-01  4.126822848488E-01  2.292831698459E-01
C60  3.794604603450E-01 -8.731771515116E-02  2.707168301541E-01
H61  3.907671222606E-01 -3.623769166673E-01 -6.693189035437E-02
H62 -3.907671222606E-01  1.376230833327E-01 -4.330681096456E-01
H63 -3.907671222606E-01  3.623769166673E-01  6.693189035437E-02
H64  3.907671222606E-01 -1.376230833327E-01  4.330681096456E-01
C65  4.410536217510E-01 -4.551312617278E-01 -3.626119200311E-01
C66 -4.410536217510E-01  4.486873827221E-02 -1.373880799689E-01
C67 -4.410536217510E-01  4.551312617278E-01  3.626119200311E-01
C68  4.410536217510E-01 -4.486873827221E-02  1.373880799689E-01
C69  4.254181530545E-01  4.745722603214E-01  4.282528594676E-01
C70 -4.254181530545E-01 -2.542773967857E-02  7.174714053244E-02
C71 -4.254181530545E-01 -4.745722603214E-01 -4.282528594676E-01
C72  4.254181530545E-01  2.542773967857E-02 -7.174714053244E-02
C73  3.496105603764E-01  4.580831056152E-01  3.583722257808E-01
C74 -3.496105603764E-01 -4.191689438475E-02  1.416277742192E-01
C75 -3.496105603764E-01 -4.580831056152E-01 -3.583722257808E-01
C76  3.496105603764E-01  4.191689438475E-02 -1.416277742192E-01
H77  3.390779472355E-01  4.112739344680E-01  1.938649835999E-01
H78 -3.390779472355E-01 -8.872606553204E-02  3.061350164001E-01
H79 -3.390779472355E-01 -4.112739344680E-01 -1.938649835999E-01
H80  3.390779472355E-01  8.872606553204E-02 -3.061350164001E-01
C81 -4.849562845765E-01 -4.305956212188E-01 -2.955676406282E-01
C82  4.849562845765E-01  6.940437878120E-02 -2.044323593718E-01
C83  4.849562845765E-01  4.305956212188E-01  2.955676406282E-01
C84 -4.849562845765E-01 -6.940437878120E-02  2.044323593718E-01
H85 -4.733734114513E-01 -3.755266843576E-01 -1.354995760978E-01
H86  4.733734114513E-01  1.244733156424E-01 -3.645004239022E-01
H87  4.733734114513E-01  3.755266843576E-01  1.354995760978E-01
H88 -4.733734114513E-01 -1.244733156424E-01  3.645004239022E-01


#===END

data_OPT_STEP_30

_symmetry_space_group_name_H-M 'P 1'
_cell_length_a     18.09352859
_cell_length_b      7.76076376
_cell_length_c      6.30069084
_cell_angle_alpha   90.000000
_cell_angle_beta   91.086815
_cell_angle_gamma   90.000000

loop_
_atom_site_label
_atom_site_fract_x
_atom_site_fract_y
_atom_site_fract_z
C1  1.605897375803E-01 -3.775842221200E-01  4.823016124323E-01
C2 -1.605897375803E-01  1.224157778800E-01  1.769838756766E-02
C3 -1.605897375803E-01  3.775842221200E-01 -4.823016124323E-01
C4  1.605897375803E-01 -1.224157778800E-01 -1.769838756766E-02
H5  1.778891047529E-01 -2.767963336170E-01 -4.026740495639E-01
H6 -1.778891047529E-01  2.232036663830E-01 -9.732595043605E-02
H7 -1.778891047529E-01  2.767963336170E-01  4.026740495639E-01
H8  1.778891047529E-01 -2.232036663830E-01  9.732595043605E-02
C9  8.653222703393E-02 -3.821947754030E-01  4.108192873420E-01
C10 -8.653222703393E-02  1.178052245970E-01  8.918071265796E-02
C11 -8.653222703393E-02  3.821947754030E-01 -4.108192873420E-01
C12  8.653222703393E-02 -1.178052245970E-01 -8.918071265796E-02
H13  4.691274305345E-02 -2.863302408236E-01  4.730903182651E-01
H14 -4.691274305345E-02  2.136697591764E-01  2.690968173495E-02
H15 -4.691274305345E-02  2.863302408236E-01 -4.730903182651E-01
H16  4.691274305345E-02 -2.136697591764E-01 -2.690968173495E-02
C17  6.311923958265E-02  4.953486491121E-01  2.591396307400E-01
C18 -6.311923958265E-02 -4.651350887904E-03  2.408603692600E-01
C19 -6.311923958265E-02 -4.953486491121E-01 -2.591396307400E-01
C20  6.311923958265E-02  4.651350887904E-03 -2.408603692600E-01
H21  4.343414315126E-03  4.922148194248E-01  2.039936902432E-01
H22 -4.343414315126E-03 -7.785180575245E-03  2.960063097568E-01
H23 -4.343414315126E-03 -4.922148194248E-01 -2.039936902432E-01
H24  4.343414315126E-03  7.785180575245E-03 -2.960063097568E-01
C25  1.146594089265E-01  3.768822725216E-01  1.795624138689E-01
C26 -1.146594089265E-01 -1.231177274784E-01  3.204375861311E-01
C27 -1.146594089265E-01 -3.768822725216E-01 -1.795624138689E-01
C28  1.146594089265E-01  1.231177274784E-01 -3.204375861311E-01
H29  9.713577049123E-02  2.781451301087E-01  6.101118967357E-02
H30 -9.713577049123E-02 -2.218548698913E-01  4.389888103264E-01
H31 -9.713577049123E-02 -2.781451301087E-01 -6.101118967357E-02
H32  9.713577049123E-02  2.218548698913E-01 -4.389888103264E-01
C33  1.885240294836E-01  3.793297415485E-01  2.535884879762E-01
C34 -1.885240294836E-01 -1.206702584515E-01  2.464115120238E-01
C35 -1.885240294836E-01 -3.793297415485E-01 -2.535884879762E-01
C36  1.885240294836E-01  1.206702584515E-01 -2.464115120238E-01
H37  2.274395309546E-01  2.795568614012E-01  1.957749157025E-01
H38 -2.274395309546E-01 -2.204431385988E-01  3.042250842975E-01
H39 -2.274395309546E-01 -2.795568614012E-01 -1.957749157025E-01
H40  2.274395309546E-01  2.204431385988E-01 -3.042250842975E-01
C41  2.127020148466E-01 -4.986550495247E-01  4.068901118341E-01
C42 -2.127020148466E-01  1.344950475320E-03  9.310988816587E-02
C43 -2.127020148466E-01  4.986550495247E-01 -4.068901118341E-01
C44  2.127020148466E-01 -1.344950475320E-03 -9.310988816587E-02
C45  2.913288333716E-01 -4.938000605732E-01  4.858136015320E-01
C46 -2.913288333716E-01  6.199939426782E-03  1.418639846804E-02
C47 -2.913288333716E-01  4.938000605732E-01 -4.858136015320E-01
C48  2.913288333716E-01 -6.199939426782E-03 -1.418639846804E-02
C49  3.080883850719E-01 -4.315654759451E-01 -3.016934703382E-01
C50 -3.080883850719E-01  6.843452405485E-02 -1.983065296618E-01
C51 -3.080883850719E-01  4.315654759451E-01  3.016934703382E-01
C52  3.080883850719E-01 -6.843452405485E-02  1.983065296618E-01
H53  2.620469571526E-01 -4.010562972125E-01 -1.935991897586E-01
H54 -2.620469571526E-01  9.894370278753E-02 -3.064008102414E-01
H55 -2.620469571526E-01  4.010562972125E-01  1.935991897586E-01
H56  2.620469571526E-01 -9.894370278753E-02  3.064008102414E-01
C57  3.799947509075E-01 -4.104562483819E-01 -2.301364977586E-01
C58 -3.799947509075E-01  8.954375161809E-02 -2.698635022414E-01
C59 -3.799947509075E-01  4.104562483819E-01  2.301364977586E-01
C60  3.799947509075E-01 -8.954375161809E-02  2.698635022414E-01
H61  3.915668092452E-01 -3.603028055102E-01 -6.746529845875E-02
H62 -3.915668092452E-01  1.396971944898E-01 -4.325347015412E-01
H63 -3.915668092452E-01  3.603028055102E-01  6.746529845875E-02
H64  3.915668092452E-01 -1.396971944898E-01  4.325347015412E-01
C65  4.413187242058E-01 -4.539646734347E-01 -3.630665381847E-01
C66 -4.413187242058E-01  4.603532656528E-02 -1.369334618153E-01
C67 -4.413187242058E-01  4.539646734347E-01  3.630665381847E-01
C68  4.413187242058E-01 -4.603532656528E-02  1.369334618153E-01
C69  4.252920702732E-01  4.755751247419E-01  4.274039244306E-01
C70 -4.252920702732E-01 -2.442487525812E-02  7.259607556944E-02
C71 -4.252920702732E-01 -4.755751247419E-01 -4.274039244306E-01
C72  4.252920702732E-01  2.442487525812E-02 -7.259607556944E-02
C73  3.493964295250E-01  4.585601514531E-01  3.572699898440E-01
C74 -3.493964295250E-01 -4.143984854694E-02  1.427300101560E-01
C75 -3.493964295250E-01 -4.585601514531E-01 -3.572699898440E-01
C76  3.493964295250E-01  4.143984854694E-02 -1.427300101560E-01
H77  3.386135090085E-01  4.119968109271E-01  1.923664310963E-01
H78 -3.386135090085E-01 -8.800318907286E-02  3.076335689037E-01
H79 -3.386135090085E-01 -4.119968109271E-01 -1.923664310963E-01
H80  3.386135090085E-01  8.800318907286E-02 -3.076335689037E-01
C81 -4.845777742520E-01 -4.297663066092E-01 -2.955343198903E-01
C82  4.845777742520E-01  7.023369339079E-02 -2.044656801097E-01
C83  4.845777742520E-01  4.297663066092E-01  2.955343198903E-01
C84 -4.845777742520E-01 -7.023369339079E-02  2.044656801097E-01
H85 -4.727014430652E-01 -3.746525005628E-01 -1.351473373918E-01
H86  4.727014430652E-01  1.253474994372E-01 -3.648526626082E-01
H87  4.727014430652E-01  3.746525005628E-01  1.351473373918E-01
H88 -4.727014430652E-01 -1.253474994372E-01  3.648526626082E-01


#===END

data_OPT_STEP_31

_symmetry_space_group_name_H-M 'P 1'
_cell_length_a     18.08249331
_cell_length_b      7.78805605
_cell_length_c      6.30625417
_cell_angle_alpha   90.000000
_cell_angle_beta   90.782761
_cell_angle_gamma   90.000000

loop_
_atom_site_label
_atom_site_fract_x
_atom_site_fract_y
_atom_site_fract_z
C1  1.604851436121E-01 -3.774346345288E-01  4.822403831826E-01
C2 -1.604851436121E-01  1.225653654712E-01  1.775961681742E-02
C3 -1.604851436121E-01  3.774346345288E-01 -4.822403831826E-01
C4  1.604851436121E-01 -1.225653654712E-01 -1.775961681742E-02
H5  1.776809123530E-01 -2.763166080126E-01 -4.036126190023E-01
H6 -1.776809123530E-01  2.236833919874E-01 -9.638738099770E-02
H7 -1.776809123530E-01  2.763166080126E-01  4.036126190023E-01
H8  1.776809123530E-01 -2.236833919874E-01  9.638738099770E-02
C9  8.659669628773E-02 -3.814987056167E-01  4.101694752271E-01
C10 -8.659669628773E-02  1.185012943833E-01  8.983052477288E-02
C11 -8.659669628773E-02  3.814987056167E-01 -4.101694752271E-01
C12  8.659669628773E-02 -1.185012943833E-01 -8.983052477288E-02
H13  4.694062603459E-02 -2.852849452374E-01  4.714360632726E-01
H14 -4.694062603459E-02  2.147150547626E-01  2.856393672737E-02
H15 -4.694062603459E-02  2.852849452374E-01 -4.714360632726E-01
H16  4.694062603459E-02 -2.147150547626E-01 -2.856393672737E-02
C17  6.339914021343E-02  4.958381961675E-01  2.594450040441E-01
C18 -6.339914021343E-02 -4.161803832519E-03  2.405549959559E-01
C19 -6.339914021343E-02 -4.958381961675E-01 -2.594450040441E-01
C20  6.339914021343E-02  4.161803832519E-03 -2.405549959559E-01
H21  4.717921647394E-03  4.927253890194E-01  2.040768229717E-01
H22 -4.717921647394E-03 -7.274610980566E-03  2.959231770283E-01
H23 -4.717921647394E-03 -4.927253890194E-01 -2.040768229717E-01
H24  4.717921647394E-03  7.274610980566E-03 -2.959231770283E-01
C25  1.149942854765E-01  3.768100069564E-01  1.812715741564E-01
C26 -1.149942854765E-01 -1.231899930436E-01  3.187284258436E-01
C27 -1.149942854765E-01 -3.768100069564E-01 -1.812715741564E-01
C28  1.149942854765E-01  1.231899930436E-01 -3.187284258436E-01
H29  9.764429016163E-02  2.782540728521E-01  6.329056056209E-02
H30 -9.764429016163E-02 -2.217459271479E-01  4.367094394379E-01
H31 -9.764429016163E-02 -2.782540728521E-01 -6.329056056209E-02
H32  9.764429016163E-02  2.217459271479E-01 -4.367094394379E-01
C33  1.887361874974E-01  3.791773023173E-01  2.554383473715E-01
C34 -1.887361874974E-01 -1.208226976827E-01  2.445616526285E-01
C35 -1.887361874974E-01 -3.791773023173E-01 -2.554383473715E-01
C36  1.887361874974E-01  1.208226976827E-01 -2.445616526285E-01
H37  2.277640043365E-01  2.797410533742E-01  1.980913135785E-01
H38 -2.277640043365E-01 -2.202589466258E-01  3.019086864215E-01
H39 -2.277640043365E-01 -2.797410533742E-01 -1.980913135785E-01
H40  2.277640043365E-01  2.202589466258E-01 -3.019086864215E-01
C41  2.127299270454E-01 -4.982990724462E-01  4.074795372047E-01
C42 -2.127299270454E-01  1.700927553771E-03  9.252046279533E-02
C43 -2.127299270454E-01  4.982990724462E-01 -4.074795372047E-01
C44  2.127299270454E-01 -1.700927553771E-03 -9.252046279533E-02
C45  2.912662852477E-01 -4.933218125802E-01  4.862274524422E-01
C46 -2.912662852477E-01  6.678187419801E-03  1.377254755777E-02
C47 -2.912662852477E-01  4.933218125802E-01 -4.862274524422E-01
C48  2.912662852477E-01 -6.678187419801E-03 -1.377254755777E-02
C49  3.076903017359E-01 -4.314808063349E-01 -3.014416184479E-01
C50 -3.076903017359E-01  6.851919366514E-02 -1.985583815521E-01
C51 -3.076903017359E-01  4.314808063349E-01  3.014416184479E-01
C52  3.076903017359E-01 -6.851919366514E-02  1.985583815521E-01
H53  2.614494520998E-01 -4.005412750985E-01 -1.935915265091E-01
H54 -2.614494520998E-01  9.945872490153E-02 -3.064084734909E-01
H55 -2.614494520998E-01  4.005412750985E-01  1.935915265091E-01
H56  2.614494520998E-01 -9.945872490153E-02  3.064084734909E-01
C57  3.795221836343E-01 -4.115698219051E-01 -2.296971814080E-01
C58 -3.795221836343E-01  8.843017809486E-02 -2.703028185920E-01
C59 -3.795221836343E-01  4.115698219051E-01  2.296971814080E-01
C60  3.795221836343E-01 -8.843017809486E-02  2.703028185920E-01
H61  3.908621374799E-01 -3.614064453320E-01 -6.723909868721E-02
H62 -3.908621374799E-01  1.385935546680E-01 -4.327609013128E-01
H63 -3.908621374799E-01  3.614064453320E-01  6.723909868721E-02
H64  3.908621374799E-01 -1.385935546680E-01  4.327609013128E-01
C65  4.410813663814E-01 -4.545993268584E-01 -3.628113225303E-01
C66 -4.410813663814E-01  4.540067314159E-02 -1.371886774697E-01
C67 -4.410813663814E-01  4.545993268584E-01  3.628113225303E-01
C68  4.410813663814E-01 -4.540067314159E-02  1.371886774697E-01
C69  4.253719263779E-01  4.752517321473E-01  4.278661684961E-01
C70 -4.253719263779E-01 -2.474826785269E-02  7.213383150394E-02
C71 -4.253719263779E-01 -4.752517321473E-01 -4.278661684961E-01
C72  4.253719263779E-01  2.474826785269E-02 -7.213383150394E-02
C73  3.495375057390E-01  4.584630577515E-01  3.579700152180E-01
C74 -3.495375057390E-01 -4.153694224855E-02  1.420299847820E-01
C75 -3.495375057390E-01 -4.584630577515E-01 -3.579700152180E-01
C76  3.495375057390E-01  4.153694224855E-02 -1.420299847820E-01
H77  3.389673929873E-01  4.117926159803E-01  1.933535822426E-01
H78 -3.389673929873E-01 -8.820738401972E-02  3.066464177574E-01
H79 -3.389673929873E-01 -4.117926159803E-01 -1.933535822426E-01
H80  3.389673929873E-01  8.820738401972E-02 -3.066464177574E-01
C81 -4.848853652733E-01 -4.303226645560E-01 -2.956059140038E-01
C82  4.848853652733E-01  6.967733544401E-02 -2.043940859962E-01
C83  4.848853652733E-01  4.303226645560E-01  2.956059140038E-01
C84 -4.848853652733E-01 -6.967733544401E-02  2.043940859962E-01
H85 -4.732468836495E-01 -3.752521261612E-01 -1.354491388759E-01
H86  4.732468836495E-01  1.247478738388E-01 -3.645508611241E-01
H87  4.732468836495E-01  3.752521261612E-01  1.354491388759E-01
H88 -4.732468836495E-01 -1.247478738388E-01  3.645508611241E-01


#===END

data_OPT_STEP_32

_symmetry_space_group_name_H-M 'P 1'
_cell_length_a     18.08063148
_cell_length_b      7.78220339
_cell_length_c      6.30567559
_cell_angle_alpha   90.000000
_cell_angle_beta   90.879621
_cell_angle_gamma   90.000000

loop_
_atom_site_label
_atom_site_fract_x
_atom_site_fract_y
_atom_site_fract_z
C1  1.603812588406E-01 -3.780675584674E-01  4.825141081487E-01
C2 -1.603812588406E-01  1.219324415326E-01  1.748589185131E-02
C3 -1.603812588406E-01  3.780675584674E-01 -4.825141081487E-01
C4  1.603812588406E-01 -1.219324415326E-01 -1.748589185131E-02
H5  1.776049698897E-01 -2.769030213043E-01 -4.029890913533E-01
H6 -1.776049698897E-01  2.230969786957E-01 -9.701090864669E-02
H7 -1.776049698897E-01  2.769030213043E-01  4.029890913533E-01
H8  1.776049698897E-01 -2.230969786957E-01  9.701090864669E-02
C9  8.651154177560E-02 -3.815079950258E-01  4.099006262533E-01
C10 -8.651154177560E-02  1.184920049742E-01  9.009937374675E-02
C11 -8.651154177560E-02  3.815079950258E-01 -4.099006262533E-01
C12  8.651154177560E-02 -1.184920049742E-01 -9.009937374675E-02
H13  4.677251528588E-02 -2.859877542847E-01  4.722157866698E-01
H14 -4.677251528588E-02  2.140122457153E-01  2.778421333023E-02
H15 -4.677251528588E-02  2.859877542847E-01 -4.722157866698E-01
H16  4.677251528588E-02 -2.140122457153E-01 -2.778421333023E-02
C17  6.318052807389E-02  4.954230108093E-01  2.592386323454E-01
C18 -6.318052807389E-02 -4.576989190743E-03  2.407613676546E-01
C19 -6.318052807389E-02 -4.954230108093E-01 -2.592386323454E-01
C20  6.318052807389E-02  4.576989190743E-03 -2.407613676546E-01
H21  4.458806956719E-03  4.923700917660E-01  2.039942423061E-01
H22 -4.458806956719E-03 -7.629908233981E-03  2.960057576939E-01
H23 -4.458806956719E-03 -4.923700917660E-01 -2.039942423061E-01
H24  4.458806956719E-03  7.629908233981E-03 -2.960057576939E-01
C25  1.148008581605E-01  3.767270472154E-01  1.805002684841E-01
C26 -1.148008581605E-01 -1.232729527846E-01  3.194997315159E-01
C27 -1.148008581605E-01 -3.767270472154E-01 -1.805002684841E-01
C28  1.148008581605E-01  1.232729527846E-01 -3.194997315159E-01
H29  9.744803571803E-02  2.784967979005E-01  6.192059435472E-02
H30 -9.744803571803E-02 -2.215032020995E-01  4.380794056453E-01
H31 -9.744803571803E-02 -2.784967979005E-01 -6.192059435472E-02
H32  9.744803571803E-02  2.215032020995E-01 -4.380794056453E-01
C33  1.886121854535E-01  3.791351263096E-01  2.546587450695E-01
C34 -1.886121854535E-01 -1.208648736904E-01  2.453412549305E-01
C35 -1.886121854535E-01 -3.791351263096E-01 -2.546587450695E-01
C36  1.886121854535E-01  1.208648736904E-01 -2.453412549305E-01
H37  2.276618603481E-01  2.800020310039E-01  1.968688874035E-01
H38 -2.276618603481E-01 -2.199979689961E-01  3.031311125965E-01
H39 -2.276618603481E-01 -2.800020310039E-01 -1.968688874035E-01
H40  2.276618603481E-01  2.199979689961E-01 -3.031311125965E-01
C41  2.126474702073E-01 -4.986038407051E-01  4.072277711976E-01
C42 -2.126474702073E-01  1.396159294915E-03  9.277222880242E-02
C43 -2.126474702073E-01  4.986038407051E-01 -4.072277711976E-01
C44  2.126474702073E-01 -1.396159294915E-03 -9.277222880242E-02
C45  2.912442544187E-01 -4.933377425867E-01  4.859187659411E-01
C46 -2.912442544187E-01  6.662257413280E-03  1.408123405887E-02
C47 -2.912442544187E-01  4.933377425867E-01 -4.859187659411E-01
C48  2.912442544187E-01 -6.662257413280E-03 -1.408123405887E-02
C49  3.077716591194E-01 -4.315077299346E-01 -3.016866831228E-01
C50 -3.077716591194E-01  6.849227006541E-02 -1.983133168772E-01
C51 -3.077716591194E-01  4.315077299346E-01  3.016866831228E-01
C52  3.077716591194E-01 -6.849227006541E-02  1.983133168772E-01
H53  2.615733814894E-01 -4.011029926735E-01 -1.935718258487E-01
H54 -2.615733814894E-01  9.889700732646E-02 -3.064281741513E-01
H55 -2.615733814894E-01  4.011029926735E-01  1.935718258487E-01
H56  2.615733814894E-01 -9.889700732646E-02  3.064281741513E-01
C57  3.796337920174E-01 -4.117246668055E-01 -2.297457974136E-01
C58 -3.796337920174E-01  8.827533319454E-02 -2.702542025864E-01
C59 -3.796337920174E-01  4.117246668055E-01  2.297457974136E-01
C60  3.796337920174E-01 -8.827533319454E-02  2.702542025864E-01
H61  3.910220361149E-01 -3.616275524151E-01 -6.722635808559E-02
H62 -3.910220361149E-01  1.383724475849E-01 -4.327736419144E-01
H63 -3.910220361149E-01  3.616275524151E-01  6.722635808559E-02
H64  3.910220361149E-01 -1.383724475849E-01  4.327736419144E-01
C65  4.411350691837E-01 -4.547121151821E-01 -3.628117841143E-01
C66 -4.411350691837E-01  4.528788481788E-02 -1.371882158857E-01
C67 -4.411350691837E-01  4.547121151821E-01  3.628117841143E-01
C68  4.411350691837E-01 -4.528788481788E-02  1.371882158857E-01
C69  4.253329117588E-01  4.752886386951E-01  4.277109634931E-01
C70 -4.253329117588E-01 -2.471136130490E-02  7.228903650687E-02
C71 -4.253329117588E-01 -4.752886386951E-01 -4.277109634931E-01
C72  4.253329117588E-01  2.471136130490E-02 -7.228903650687E-02
C73  3.494626712171E-01  4.582705992711E-01  3.577716439020E-01
C74 -3.494626712171E-01 -4.172940072891E-02  1.422283560980E-01
C75 -3.494626712171E-01 -4.582705992711E-01 -3.577716439020E-01
C76  3.494626712171E-01  4.172940072891E-02 -1.422283560980E-01
H77  3.388236598638E-01  4.116537714634E-01  1.931095543771E-01
H78 -3.388236598638E-01 -8.834622853662E-02  3.068904456229E-01
H79 -3.388236598638E-01 -4.116537714634E-01 -1.931095543771E-01
H80  3.388236598638E-01  8.834622853662E-02 -3.068904456229E-01
C81 -4.848004425494E-01 -4.303683530088E-01 -2.955233337533E-01
C82  4.848004425494E-01  6.963164699123E-02 -2.044766662467E-01
C83  4.848004425494E-01  4.303683530088E-01  2.955233337533E-01
C84 -4.848004425494E-01 -6.963164699123E-02  2.044766662467E-01
H85 -4.731013996745E-01 -3.751153234498E-01 -1.353327991682E-01
H86  4.731013996745E-01  1.248846765502E-01 -3.646672008318E-01
H87  4.731013996745E-01  3.751153234498E-01  1.353327991682E-01
H88 -4.731013996745E-01 -1.248846765502E-01  3.646672008318E-01


#===END

data_OPT_STEP_33

_symmetry_space_group_name_H-M 'P 1'
_cell_length_a     18.07806121
_cell_length_b      7.77697859
_cell_length_c      6.30776719
_cell_angle_alpha   90.000000
_cell_angle_beta   90.973601
_cell_angle_gamma   90.000000

loop_
_atom_site_label
_atom_site_fract_x
_atom_site_fract_y
_atom_site_fract_z
C1  1.602388214221E-01 -3.781857994943E-01  4.825627297706E-01
C2 -1.602388214221E-01  1.218142005057E-01  1.743727022937E-02
C3 -1.602388214221E-01  3.781857994943E-01 -4.825627297706E-01
C4  1.602388214221E-01 -1.218142005057E-01 -1.743727022937E-02
H5  1.774332667923E-01 -2.773426728862E-01 -4.023732052209E-01
H6 -1.774332667923E-01  2.226573271138E-01 -9.762679477908E-02
H7 -1.774332667923E-01  2.773426728862E-01  4.023732052209E-01
H8  1.774332667923E-01 -2.226573271138E-01  9.762679477908E-02
C9  8.631118052158E-02 -3.817359997240E-01  4.100219758499E-01
C10 -8.631118052158E-02  1.182640002760E-01  8.997802415009E-02
C11 -8.631118052158E-02  3.817359997240E-01 -4.100219758499E-01
C12  8.631118052158E-02 -1.182640002760E-01 -8.997802415009E-02
H13  4.650915549066E-02 -2.866223820055E-01  4.730334425606E-01
H14 -4.650915549066E-02  2.133776179945E-01  2.696655743942E-02
H15 -4.650915549066E-02  2.866223820055E-01 -4.730334425606E-01
H16  4.650915549066E-02 -2.133776179945E-01 -2.696655743942E-02
C17  6.297895325472E-02  4.955410511152E-01  2.588006066258E-01
C18 -6.297895325472E-02 -4.458948884840E-03  2.411993933742E-01
C19 -6.297895325472E-02 -4.955410511152E-01 -2.588006066258E-01
C20  6.297895325472E-02  4.458948884840E-03 -2.411993933742E-01
H21  4.196825509207E-03  4.923137644627E-01  2.037535043134E-01
H22 -4.196825509207E-03 -7.686235537327E-03  2.962464956866E-01
H23 -4.196825509207E-03 -4.923137644627E-01 -2.037535043134E-01
H24  4.196825509207E-03  7.686235537326E-03 -2.962464956866E-01
C25  1.146513327045E-01  3.771648867048E-01  1.795747141450E-01
C26 -1.146513327045E-01 -1.228351132952E-01  3.204252858550E-01
C27 -1.146513327045E-01 -3.771648867048E-01 -1.795747141450E-01
C28  1.146513327045E-01  1.228351132952E-01 -3.204252858550E-01
H29  9.731220876065E-02  2.791668439042E-01  6.053244791943E-02
H30 -9.731220876065E-02 -2.208331560958E-01  4.394675520806E-01
H31 -9.731220876065E-02 -2.791668439042E-01 -6.053244791943E-02
H32  9.731220876065E-02  2.208331560958E-01 -4.394675520806E-01
C33  1.884992765075E-01  3.795086918711E-01  2.538488864897E-01
C34 -1.884992765075E-01 -1.204913081289E-01  2.461511135103E-01
C35 -1.884992765075E-01 -3.795086918711E-01 -2.538488864897E-01
C36  1.884992765075E-01  1.204913081289E-01 -2.461511135103E-01
H37  2.275727761710E-01  2.806354592619E-01  1.956740733470E-01
H38 -2.275727761710E-01 -2.193645407381E-01  3.043259266530E-01
H39 -2.275727761710E-01 -2.806354592619E-01 -1.956740733470E-01
H40  2.275727761710E-01  2.193645407381E-01 -3.043259266530E-01
C41  2.125629763317E-01 -4.983620735238E-01  4.067623087483E-01
C42 -2.125629763317E-01  1.637926476163E-03  9.323769125175E-02
C43 -2.125629763317E-01  4.983620735238E-01 -4.067623087483E-01
C44  2.125629763317E-01 -1.637926476163E-03 -9.323769125175E-02
C45  2.911996786722E-01 -4.931958394790E-01  4.855721744982E-01
C46 -2.911996786722E-01  6.804160520950E-03  1.442782550179E-02
C47 -2.911996786722E-01  4.931958394790E-01 -4.855721744982E-01
C48  2.911996786722E-01 -6.804160520951E-03 -1.442782550179E-02
C49  3.078202773195E-01 -4.314473955782E-01 -3.020315243207E-01
C50 -3.078202773195E-01  6.855260442177E-02 -1.979684756793E-01
C51 -3.078202773195E-01  4.314473955782E-01  3.020315243207E-01
C52  3.078202773195E-01 -6.855260442177E-02  1.979684756793E-01
H53  2.616687513910E-01 -4.007017906427E-01 -1.940840182918E-01
H54 -2.616687513910E-01  9.929820935725E-02 -3.059159817082E-01
H55 -2.616687513910E-01  4.007017906427E-01  1.940840182918E-01
H56  2.616687513910E-01 -9.929820935725E-02  3.059159817082E-01
C57  3.797206007314E-01 -4.119162307570E-01 -2.299173796829E-01
C58 -3.797206007314E-01  8.808376924301E-02 -2.700826203171E-01
C59 -3.797206007314E-01  4.119162307570E-01  2.299173796829E-01
C60  3.797206007314E-01 -8.808376924301E-02  2.700826203171E-01
H61  3.911780425876E-01 -3.616939844671E-01 -6.745842425675E-02
H62 -3.911780425876E-01  1.383060155329E-01 -4.325415757432E-01
H63 -3.911780425876E-01  3.616939844671E-01  6.745842425675E-02
H64  3.911780425876E-01 -1.383060155329E-01  4.325415757432E-01
C65  4.411807677015E-01 -4.550156656044E-01 -3.628059673114E-01
C66 -4.411807677015E-01  4.498433439564E-02 -1.371940326886E-01
C67 -4.411807677015E-01  4.550156656044E-01  3.628059673114E-01
C68  4.411807677015E-01 -4.498433439564E-02  1.371940326886E-01
C69  4.252917378451E-01  4.753511553435E-01  4.275765912642E-01
C70 -4.252917378451E-01 -2.464884465654E-02  7.242340873576E-02
C71 -4.252917378451E-01 -4.753511553435E-01 -4.275765912642E-01
C72  4.252917378451E-01  2.464884465654E-02 -7.242340873576E-02
C73  3.493830432698E-01  4.586744016833E-01  3.574128222927E-01
C74 -3.493830432698E-01 -4.132559831671E-02  1.425871777073E-01
C75 -3.493830432698E-01 -4.586744016833E-01 -3.574128222927E-01
C76  3.493830432698E-01  4.132559831671E-02 -1.425871777073E-01
H77  3.386716414700E-01  4.119735951062E-01  1.928050808330E-01
H78 -3.386716414700E-01 -8.802640489383E-02  3.071949191670E-01
H79 -3.386716414700E-01 -4.119735951062E-01 -1.928050808330E-01
H80  3.386716414700E-01  8.802640489383E-02 -3.071949191670E-01
C81 -4.847182103149E-01 -4.308801078303E-01 -2.953148676949E-01
C82  4.847182103149E-01  6.911989216968E-02 -2.046851323051E-01
C83  4.847182103149E-01  4.308801078303E-01  2.953148676949E-01
C84 -4.847182103149E-01 -6.911989216968E-02  2.046851323051E-01
H85 -4.729617715243E-01 -3.752469744807E-01 -1.352827293514E-01
H86  4.729617715243E-01  1.247530255193E-01 -3.647172706486E-01
H87  4.729617715243E-01  3.752469744807E-01  1.352827293514E-01
H88 -4.729617715243E-01 -1.247530255193E-01  3.647172706486E-01


#===END

data_OPT_STEP_34

_symmetry_space_group_name_H-M 'P 1'
_cell_length_a     18.07403463
_cell_length_b      7.76810451
_cell_length_c      6.30702474
_cell_angle_alpha   90.000000
_cell_angle_beta   91.167544
_cell_angle_gamma   90.000000

loop_
_atom_site_label
_atom_site_fract_x
_atom_site_fract_y
_atom_site_fract_z
C1  1.599254440755E-01 -3.785288447638E-01  4.832524726887E-01
C2 -1.599254440755E-01  1.214711552362E-01  1.674752731132E-02
C3 -1.599254440755E-01  3.785288447638E-01 -4.832524726887E-01
C4  1.599254440755E-01 -1.214711552362E-01 -1.674752731132E-02
H5  1.770793174335E-01 -2.780752546751E-01 -4.007260372759E-01
H6 -1.770793174335E-01  2.219247453249E-01 -9.927396272408E-02
H7 -1.770793174335E-01  2.780752546751E-01  4.007260372759E-01
H8  1.770793174335E-01 -2.219247453249E-01  9.927396272408E-02
C9  8.590325372608E-02 -3.821781026438E-01  4.106292972812E-01
C10 -8.590325372608E-02  1.178218973562E-01  8.937070271883E-02
C11 -8.590325372608E-02  3.821781026438E-01 -4.106292972812E-01
C12  8.590325372608E-02 -1.178218973562E-01 -8.937070271883E-02
H13  4.600233512008E-02 -2.877134405177E-01  4.748290749641E-01
H14 -4.600233512008E-02  2.122865594823E-01  2.517092503593E-02
H15 -4.600233512008E-02  2.877134405177E-01 -4.748290749641E-01
H16  4.600233512008E-02 -2.122865594823E-01 -2.517092503593E-02
C17  6.258353022017E-02  4.958561045593E-01  2.581150813946E-01
C18 -6.258353022017E-02 -4.143895440729E-03  2.418849186054E-01
C19 -6.258353022017E-02 -4.958561045593E-01 -2.581150813946E-01
C20  6.258353022017E-02  4.143895440729E-03 -2.418849186054E-01
H21  3.683198056774E-03  4.922549548529E-01  2.034027611697E-01
H22 -3.683198056774E-03 -7.745045147061E-03  2.965972388303E-01
H23 -3.683198056774E-03 -4.922549548529E-01 -2.034027611697E-01
H24  3.683198056774E-03  7.745045147061E-03 -2.965972388303E-01
C25  1.143447587741E-01  3.780562020227E-01  1.779272379179E-01
C26 -1.143447587741E-01 -1.219437979773E-01  3.220727620821E-01
C27 -1.143447587741E-01 -3.780562020227E-01 -1.779272379179E-01
C28  1.143447587741E-01  1.219437979773E-01 -3.220727620821E-01
H29  9.704203699191E-02  2.805650341312E-01  5.789064512392E-02
H30 -9.704203699191E-02 -2.194349658688E-01  4.421093548761E-01
H31 -9.704203699191E-02 -2.805650341312E-01 -5.789064512392E-02
H32  9.704203699191E-02  2.194349658688E-01 -4.421093548761E-01
C33  1.882680226758E-01  3.804106480632E-01  2.523914774493E-01
C34 -1.882680226758E-01 -1.195893519368E-01  2.476085225507E-01
C35 -1.882680226758E-01 -3.804106480632E-01 -2.523914774493E-01
C36  1.882680226758E-01  1.195893519368E-01 -2.476085225507E-01
H37  2.274002189251E-01  2.821259333698E-01  1.932568776766E-01
H38 -2.274002189251E-01 -2.178740666302E-01  3.067431223234E-01
H39 -2.274002189251E-01 -2.821259333698E-01 -1.932568776766E-01
H40  2.274002189251E-01  2.178740666302E-01 -3.067431223234E-01
C41  2.123712411439E-01 -4.979195141592E-01  4.063099525147E-01
C42 -2.123712411439E-01  2.080485840762E-03  9.369004748528E-02
C43 -2.123712411439E-01  4.979195141592E-01 -4.063099525147E-01
C44  2.123712411439E-01 -2.080485840762E-03 -9.369004748528E-02
C45  2.911179747678E-01 -4.927815426965E-01  4.852526362842E-01
C46 -2.911179747678E-01  7.218457303491E-03  1.474736371576E-02
C47 -2.911179747678E-01  4.927815426965E-01 -4.852526362842E-01
C48  2.911179747678E-01 -7.218457303492E-03 -1.474736371576E-02
C49  3.079725084222E-01 -4.314188600748E-01 -3.021068457522E-01
C50 -3.079725084222E-01  6.858113992521E-02 -1.978931542478E-01
C51 -3.079725084222E-01  4.314188600748E-01  3.021068457522E-01
C52  3.079725084222E-01 -6.858113992521E-02  1.978931542478E-01
H53  2.619433707861E-01 -4.006949452081E-01 -1.941003779679E-01
H54 -2.619433707861E-01  9.930505479193E-02 -3.058996220321E-01
H55 -2.619433707861E-01  4.006949452081E-01  1.941003779679E-01
H56  2.619433707861E-01 -9.930505479193E-02  3.058996220321E-01
C57  3.799756481334E-01 -4.116335710138E-01 -2.300455124118E-01
C58 -3.799756481334E-01  8.836642898617E-02 -2.699544875882E-01
C59 -3.799756481334E-01  4.116335710138E-01  2.300455124118E-01
C60  3.799756481334E-01 -8.836642898617E-02  2.699544875882E-01
H61  3.916151731809E-01 -3.615347554744E-01 -6.747429455216E-02
H62 -3.916151731809E-01  1.384652445256E-01 -4.325257054478E-01
H63 -3.916151731809E-01  3.615347554744E-01  6.747429455216E-02
H64  3.916151731809E-01 -1.384652445256E-01  4.325257054478E-01
C65  4.413119520326E-01 -4.545974579112E-01 -3.629970406389E-01
C66 -4.413119520326E-01  4.540254208877E-02 -1.370029593611E-01
C67 -4.413119520326E-01  4.545974579112E-01  3.629970406389E-01
C68  4.413119520326E-01 -4.540254208877E-02  1.370029593611E-01
C69  4.251882563948E-01  4.752954590677E-01  4.275236512338E-01
C70 -4.251882563948E-01 -2.470454093231E-02  7.247634876619E-02
C71 -4.251882563948E-01 -4.752954590677E-01 -4.275236512338E-01
C72  4.251882563948E-01  2.470454093231E-02 -7.247634876619E-02
C73  3.491835468597E-01  4.589199853175E-01  3.571727681968E-01
C74 -3.491835468597E-01 -4.108001468245E-02  1.428272318032E-01
C75 -3.491835468597E-01 -4.589199853175E-01 -3.571727681968E-01
C76  3.491835468597E-01  4.108001468245E-02 -1.428272318032E-01
H77  3.383053289426E-01  4.123820872002E-01  1.924203254199E-01
H78 -3.383053289426E-01 -8.761791279984E-02  3.075796745801E-01
H79 -3.383053289426E-01 -4.123820872002E-01 -1.924203254199E-01
H80  3.383053289426E-01  8.761791279984E-02 -3.075796745801E-01
C81 -4.844920700818E-01 -4.306393249285E-01 -2.953317266927E-01
C82  4.844920700818E-01  6.936067507153E-02 -2.046682733073E-01
C83  4.844920700818E-01  4.306393249285E-01  2.953317266927E-01
C84 -4.844920700818E-01 -6.936067507153E-02  2.046682733073E-01
H85 -4.725678670306E-01 -3.752956394152E-01 -1.351032468547E-01
H86  4.725678670306E-01  1.247043605848E-01 -3.648967531453E-01
H87  4.725678670306E-01  3.752956394152E-01  1.351032468547E-01
H88 -4.725678670306E-01 -1.247043605848E-01  3.648967531453E-01


#===END

data_OPT_STEP_35

_symmetry_space_group_name_H-M 'P 1'
_cell_length_a     18.08516552
_cell_length_b      7.73703753
_cell_length_c      6.31103635
_cell_angle_alpha   90.000000
_cell_angle_beta   91.609202
_cell_angle_gamma   90.000000

loop_
_atom_site_label
_atom_site_fract_x
_atom_site_fract_y
_atom_site_fract_z
C1  1.598877965683E-01 -3.793722148285E-01  4.838160429617E-01
C2 -1.598877965683E-01  1.206277851715E-01  1.618395703825E-02
C3 -1.598877965683E-01  3.793722148285E-01 -4.838160429617E-01
C4  1.598877965683E-01 -1.206277851715E-01 -1.618395703825E-02
H5  1.771786806900E-01 -2.790321019587E-01 -3.990985580371E-01
H6 -1.771786806900E-01  2.209678980413E-01 -1.009014419629E-01
H7 -1.771786806900E-01  2.790321019587E-01  3.990985580371E-01
H8  1.771786806900E-01 -2.209678980413E-01  1.009014419629E-01
C9  8.565433487271E-02 -3.835083748956E-01  4.116493344302E-01
C10 -8.565433487271E-02  1.164916251044E-01  8.835066556978E-02
C11 -8.565433487271E-02  3.835083748956E-01 -4.116493344302E-01
C12  8.565433487271E-02 -1.164916251044E-01 -8.835066556978E-02
H13  4.576271704492E-02 -2.898771453703E-01  4.774586022215E-01
H14 -4.576271704492E-02  2.101228546297E-01  2.254139777853E-02
H15 -4.576271704492E-02  2.898771453703E-01 -4.774586022215E-01
H16  4.576271704492E-02 -2.101228546297E-01 -2.254139777853E-02
C17  6.212071636511E-02  4.956500105785E-01  2.572749390797E-01
C18 -6.212071636511E-02 -4.349989421547E-03  2.427250609203E-01
C19 -6.212071636511E-02 -4.956500105785E-01 -2.572749390797E-01
C20  6.212071636511E-02  4.349989421547E-03 -2.427250609203E-01
H21  3.097426600150E-03  4.920295906295E-01  2.028331797136E-01
H22 -3.097426600150E-03 -7.970409370472E-03  2.971668202864E-01
H23 -3.097426600150E-03 -4.920295906295E-01 -2.028331797136E-01
H24  3.097426600150E-03  7.970409370471E-03 -2.971668202864E-01
C25  1.137641439834E-01  3.783852131738E-01  1.757429072229E-01
C26 -1.137641439834E-01 -1.216147868262E-01  3.242570927771E-01
C27 -1.137641439834E-01 -3.783852131738E-01 -1.757429072229E-01
C28  1.137641439834E-01  1.216147868262E-01 -3.242570927771E-01
H29  9.628450703422E-02  2.810290606778E-01  5.496560481136E-02
H30 -9.628450703422E-02 -2.189709393222E-01  4.450343951886E-01
H31 -9.628450703422E-02 -2.810290606778E-01 -5.496560481136E-02
H32  9.628450703422E-02  2.189709393222E-01 -4.450343951886E-01
C33  1.878430950134E-01  3.806696011147E-01  2.502188812225E-01
C34 -1.878430950134E-01 -1.193303988853E-01  2.497811187775E-01
C35 -1.878430950134E-01 -3.806696011147E-01 -2.502188812225E-01
C36  1.878430950134E-01  1.193303988853E-01 -2.497811187775E-01
H37  2.268719715698E-01  2.824625980838E-01  1.900285533957E-01
H38 -2.268719715698E-01 -2.175374019162E-01  3.099714466043E-01
H39 -2.268719715698E-01 -2.824625980838E-01 -1.900285533957E-01
H40  2.268719715698E-01  2.175374019162E-01 -3.099714466043E-01
C41  2.122751150617E-01 -4.979733189666E-01  4.052751014166E-01
C42 -2.122751150617E-01  2.026681033397E-03  9.472489858339E-02
C43 -2.122751150617E-01  4.979733189666E-01 -4.052751014166E-01
C44  2.122751150617E-01 -2.026681033397E-03 -9.472489858339E-02
C45  2.911670049765E-01 -4.931354996118E-01  4.845741395907E-01
C46 -2.911670049765E-01  6.864500388247E-03  1.542586040926E-02
C47 -2.911670049765E-01  4.931354996118E-01 -4.845741395907E-01
C48  2.911670049765E-01 -6.864500388247E-03 -1.542586040926E-02
C49  3.085033132348E-01 -4.313920663099E-01 -3.028706682631E-01
C50 -3.085033132348E-01  6.860793369009E-02 -1.971293317369E-01
C51 -3.085033132348E-01  4.313920663099E-01  3.028706682631E-01
C52  3.085033132348E-01 -6.860793369009E-02  1.971293317369E-01
H53  2.627433952936E-01 -4.004979704087E-01 -1.950313106987E-01
H54 -2.627433952936E-01  9.950202959134E-02 -3.049686893013E-01
H55 -2.627433952936E-01  4.004979704087E-01  1.950313106987E-01
H56  2.627433952936E-01 -9.950202959134E-02  3.049686893013E-01
C57  3.806273612895E-01 -4.128776926613E-01 -2.300140016139E-01
C58 -3.806273612895E-01  8.712230733871E-02 -2.699859983861E-01
C59 -3.806273612895E-01  4.128776926613E-01  2.300140016139E-01
C60  3.806273612895E-01 -8.712230733871E-02  2.699859983861E-01
H61  3.925730586706E-01 -3.629468973878E-01 -6.737930400531E-02
H62 -3.925730586706E-01  1.370531026122E-01 -4.326206959947E-01
H63 -3.925730586706E-01  3.629468973878E-01  6.737930400531E-02
H64  3.925730586706E-01 -1.370531026122E-01  4.326206959947E-01
C65  4.416523800286E-01 -4.559269900670E-01 -3.626641660073E-01
C66 -4.416523800286E-01  4.407300993303E-02 -1.373358339927E-01
C67 -4.416523800286E-01  4.559269900670E-01  3.626641660073E-01
C68  4.416523800286E-01 -4.407300993303E-02  1.373358339927E-01
C69  4.250623651333E-01  4.749971939826E-01  4.272867548311E-01
C70 -4.250623651333E-01 -2.500280601742E-02  7.271324516894E-02
C71 -4.250623651333E-01 -4.749971939826E-01 -4.272867548311E-01
C72  4.250623651333E-01  2.500280601742E-02 -7.271324516894E-02
C73  3.489335124946E-01  4.581680018895E-01  3.568757832188E-01
C74 -3.489335124946E-01 -4.183199811054E-02  1.431242167812E-01
C75 -3.489335124946E-01 -4.581680018895E-01 -3.568757832188E-01
C76  3.489335124946E-01  4.183199811053E-02 -1.431242167812E-01
H77  3.377648480448E-01  4.117262096885E-01  1.920392111401E-01
H78 -3.377648480448E-01 -8.827379031153E-02  3.079607888599E-01
H79 -3.377648480448E-01 -4.117262096885E-01 -1.920392111401E-01
H80  3.377648480448E-01  8.827379031153E-02 -3.079607888599E-01
C81 -4.840439715601E-01 -4.311529828369E-01 -2.949978807045E-01
C82  4.840439715601E-01  6.884701716310E-02 -2.050021192955E-01
C83  4.840439715601E-01  4.311529828369E-01  2.949978807045E-01
C84 -4.840439715601E-01 -6.884701716310E-02  2.050021192955E-01
H85 -4.718246447370E-01 -3.761106872360E-01 -1.346041206505E-01
H86  4.718246447370E-01  1.238893127640E-01 -3.653958793495E-01
H87  4.718246447370E-01  3.761106872360E-01  1.346041206505E-01
H88 -4.718246447370E-01 -1.238893127640E-01  3.653958793495E-01


#===END

data_OPT_STEP_36

_symmetry_space_group_name_H-M 'P 1'
_cell_length_a     18.07217174
_cell_length_b      7.76034770
_cell_length_c      6.30933005
_cell_angle_alpha   90.000000
_cell_angle_beta   91.256328
_cell_angle_gamma   90.000000

loop_
_atom_site_label
_atom_site_fract_x
_atom_site_fract_y
_atom_site_fract_z
C1  1.598046993350E-01 -3.788781245814E-01  4.834456022614E-01
C2 -1.598046993350E-01  1.211218754186E-01  1.655439773863E-02
C3 -1.598046993350E-01  3.788781245814E-01 -4.834456022614E-01
C4  1.598046993350E-01 -1.211218754186E-01 -1.655439773863E-02
H5  1.769543807681E-01 -2.784768084796E-01 -4.001160262225E-01
H6 -1.769543807681E-01  2.215231915204E-01 -9.988397377752E-02
H7 -1.769543807681E-01  2.784768084796E-01  4.001160262225E-01
H8  1.769543807681E-01 -2.215231915204E-01  9.988397377752E-02
C9  8.571304406235E-02 -3.827764734350E-01  4.110267642004E-01
C10 -8.571304406235E-02  1.172235265650E-01  8.897323579962E-02
C11 -8.571304406235E-02  3.827764734350E-01 -4.110267642004E-01
C12  8.571304406235E-02 -1.172235265650E-01 -8.897323579962E-02
H13  4.576770953207E-02 -2.887023642984E-01  4.758812802796E-01
H14 -4.576770953207E-02  2.112976357016E-01  2.411871972044E-02
H15 -4.576770953207E-02  2.887023642984E-01 -4.758812802796E-01
H16  4.576770953207E-02 -2.112976357016E-01 -2.411871972044E-02
C17  6.239640945388E-02  4.958614731392E-01  2.577139586954E-01
C18 -6.239640945388E-02 -4.138526860757E-03  2.422860413046E-01
C19 -6.239640945388E-02 -4.958614731392E-01 -2.577139586954E-01
C20  6.239640945388E-02  4.138526860757E-03 -2.422860413046E-01
H21  3.462956651208E-03  4.921985351035E-01  2.031227617686E-01
H22 -3.462956651208E-03 -7.801464896460E-03  2.968772382314E-01
H23 -3.462956651208E-03 -4.921985351035E-01 -2.031227617686E-01
H24  3.462956651208E-03  7.801464896460E-03 -2.968772382314E-01
C25  1.141653593701E-01  3.783050761893E-01  1.771118421642E-01
C26 -1.141653593701E-01 -1.216949238107E-01  3.228881578358E-01
C27 -1.141653593701E-01 -3.783050761893E-01 -1.771118421642E-01
C28  1.141653593701E-01  1.216949238107E-01 -3.228881578358E-01
H29  9.684381468572E-02  2.808473253741E-01  5.691918302785E-02
H30 -9.684381468572E-02 -2.191526746259E-01  4.430808169722E-01
H31 -9.684381468572E-02 -2.808473253741E-01 -5.691918302785E-02
H32  9.684381468572E-02  2.191526746259E-01 -4.430808169722E-01
C33  1.881306571493E-01  3.806187827692E-01  2.516123542180E-01
C34 -1.881306571493E-01 -1.193812172308E-01  2.483876457820E-01
C35 -1.881306571493E-01 -3.806187827692E-01 -2.516123542180E-01
C36  1.881306571493E-01  1.193812172308E-01 -2.483876457820E-01
H37  2.272547627790E-01  2.823626122294E-01  1.921838319733E-01
H38 -2.272547627790E-01 -2.176373877706E-01  3.078161680267E-01
H39 -2.272547627790E-01 -2.823626122294E-01 -1.921838319733E-01
H40  2.272547627790E-01  2.176373877706E-01 -3.078161680267E-01
C41  2.122913974006E-01 -4.978510117550E-01  4.058935464010E-01
C42 -2.122913974006E-01  2.148988244983E-03  9.410645359897E-02
C43 -2.122913974006E-01  4.978510117550E-01 -4.058935464010E-01
C44  2.122913974006E-01 -2.148988244984E-03 -9.410645359897E-02
C45  2.910776688375E-01 -4.928157257939E-01  4.849879483914E-01
C46 -2.910776688375E-01  7.184274206072E-03  1.501205160858E-02
C47 -2.910776688375E-01  4.928157257939E-01 -4.849879483914E-01
C48  2.910776688375E-01 -7.184274206072E-03 -1.501205160858E-02
C49  3.080242355299E-01 -4.312118553297E-01 -3.024869552904E-01
C50 -3.080242355299E-01  6.878814467034E-02 -1.975130447096E-01
C51 -3.080242355299E-01  4.312118553297E-01  3.024869552904E-01
C52  3.080242355299E-01 -6.878814467034E-02  1.975130447096E-01
H53  2.620393243759E-01 -4.004080832343E-01 -1.945569656877E-01
H54 -2.620393243759E-01  9.959191676571E-02 -3.054430343123E-01
H55 -2.620393243759E-01  4.004080832343E-01  1.945569656877E-01
H56  2.620393243759E-01 -9.959191676571E-02  3.054430343123E-01
C57  3.800624549254E-01 -4.121463521068E-01 -2.300518024359E-01
C58 -3.800624549254E-01  8.785364789317E-02 -2.699481975641E-01
C59 -3.800624549254E-01  4.121463521068E-01  2.300518024359E-01
C60  3.800624549254E-01 -8.785364789317E-02  2.699481975641E-01
H61  3.917417422479E-01 -3.621392009585E-01 -6.748536300566E-02
H62 -3.917417422479E-01  1.378607990415E-01 -4.325146369943E-01
H63 -3.917417422479E-01  3.621392009585E-01  6.748536300566E-02
H64  3.917417422479E-01 -1.378607990415E-01  4.325146369943E-01
C65  4.413615853288E-01 -4.552224776804E-01 -3.628363197944E-01
C66 -4.413615853288E-01  4.477752231963E-02 -1.371636802056E-01
C67 -4.413615853288E-01  4.552224776804E-01  3.628363197944E-01
C68  4.413615853288E-01 -4.477752231963E-02  1.371636802056E-01
C69  4.251495850588E-01  4.752620014756E-01  4.274267379886E-01
C70 -4.251495850588E-01 -2.473799852443E-02  7.257326201144E-02
C71 -4.251495850588E-01 -4.752620014756E-01 -4.274267379886E-01
C72  4.251495850588E-01  2.473799852443E-02 -7.257326201144E-02
C73  3.491056005850E-01  4.586458271429E-01  3.571153160539E-01
C74 -3.491056005850E-01 -4.135417285705E-02  1.428846839461E-01
C75 -3.491056005850E-01 -4.586458271429E-01 -3.571153160539E-01
C76  3.491056005850E-01  4.135417285705E-02 -1.428846839461E-01
H77  3.381856424114E-01  4.121639229227E-01  1.923694479593E-01
H78 -3.381856424114E-01 -8.783607707732E-02  3.076305520407E-01
H79 -3.381856424114E-01 -4.121639229227E-01 -1.923694479593E-01
H80  3.381856424114E-01  8.783607707732E-02 -3.076305520407E-01
C81 -4.844088174818E-01 -4.309149907230E-01 -2.952173112360E-01
C82  4.844088174818E-01  6.908500927699E-02 -2.047826887640E-01
C83  4.844088174818E-01  4.309149907230E-01  2.952173112360E-01
C84 -4.844088174818E-01 -6.908500927699E-02  2.047826887640E-01
H85 -4.724427696077E-01 -3.756967660461E-01 -1.349670934811E-01
H86  4.724427696077E-01  1.243032339539E-01 -3.650329065189E-01
H87  4.724427696077E-01  3.756967660461E-01  1.349670934811E-01
H88 -4.724427696077E-01 -1.243032339539E-01  3.650329065189E-01


#===END

data_OPT_STEP_37

_symmetry_space_group_name_H-M 'P 1'
_cell_length_a     18.07433693
_cell_length_b      7.74976065
_cell_length_c      6.31387923
_cell_angle_alpha   90.000000
_cell_angle_beta   91.345894
_cell_angle_gamma   90.000000

loop_
_atom_site_label
_atom_site_fract_x
_atom_site_fract_y
_atom_site_fract_z
C1  1.598077024273E-01 -3.792953879799E-01  4.834194045662E-01
C2 -1.598077024273E-01  1.207046120201E-01  1.658059543376E-02
C3 -1.598077024273E-01  3.792953879799E-01 -4.834194045662E-01
C4  1.598077024273E-01 -1.207046120201E-01 -1.658059543376E-02
H5  1.769728056673E-01 -2.790217004665E-01 -3.997097421239E-01
H6 -1.769728056673E-01  2.209782995335E-01 -1.002902578761E-01
H7 -1.769728056673E-01  2.790217004665E-01  3.997097421239E-01
H8  1.769728056673E-01 -2.209782995335E-01  1.002902578761E-01
C9  8.568059081174E-02 -3.832006105512E-01  4.110908688102E-01
C10 -8.568059081174E-02  1.167993894488E-01  8.890913118975E-02
C11 -8.568059081174E-02  3.832006105512E-01 -4.110908688102E-01
C12  8.568059081174E-02 -1.167993894488E-01 -8.890913118975E-02
H13  4.573122083639E-02 -2.894500702666E-01  4.764767704896E-01
H14 -4.573122083639E-02  2.105499297334E-01  2.352322951039E-02
H15 -4.573122083639E-02  2.894500702666E-01 -4.764767704896E-01
H16  4.573122083639E-02 -2.105499297334E-01 -2.352322951039E-02
C17  6.228569194470E-02  4.956745220447E-01  2.574090069655E-01
C18 -6.228569194470E-02 -4.325477955295E-03  2.425909930345E-01
C19 -6.228569194470E-02 -4.956745220447E-01 -2.574090069655E-01
C20  6.228569194470E-02  4.325477955294E-03 -2.425909930345E-01
H21  3.337729992345E-03  4.921778393179E-01  2.028382790490E-01
H22 -3.337729992345E-03 -7.822160682058E-03  2.971617209510E-01
H23 -3.337729992345E-03 -4.921778393179E-01 -2.028382790490E-01
H24  3.337729992345E-03  7.822160682058E-03 -2.971617209510E-01
C25  1.140163161092E-01  3.783062131606E-01  1.764151663005E-01
C26 -1.140163161092E-01 -1.216937868394E-01  3.235848336995E-01
C27 -1.140163161092E-01 -3.783062131606E-01 -1.764151663005E-01
C28  1.140163161092E-01  1.216937868394E-01 -3.235848336995E-01
H29  9.664796024787E-02  2.808915564546E-01  5.613235315865E-02
H30 -9.664796024787E-02 -2.191084435454E-01  4.438676468414E-01
H31 -9.664796024787E-02 -2.808915564546E-01 -5.613235315865E-02
H32  9.664796024787E-02  2.191084435454E-01 -4.438676468414E-01
C33  1.880264339440E-01  3.805963609078E-01  2.508312144054E-01
C34 -1.880264339440E-01 -1.194036390922E-01  2.491687855946E-01
C35 -1.880264339440E-01 -3.805963609078E-01 -2.508312144054E-01
C36  1.880264339440E-01  1.194036390922E-01 -2.491687855946E-01
H37  2.271167693067E-01  2.822899747435E-01  1.911451180970E-01
H38 -2.271167693067E-01 -2.177100252565E-01  3.088548819030E-01
H39 -2.271167693067E-01 -2.822899747435E-01 -1.911451180970E-01
H40  2.271167693067E-01  2.177100252565E-01 -3.088548819030E-01
C41  2.122643332580E-01 -4.980911725781E-01  4.054669992163E-01
C42 -2.122643332580E-01  1.908827421916E-03  9.453300078372E-02
C43 -2.122643332580E-01  4.980911725781E-01 -4.054669992163E-01
C44  2.122643332580E-01 -1.908827421916E-03 -9.453300078372E-02
C45  2.910808650319E-01 -4.930371936766E-01  4.845641107116E-01
C46 -2.910808650319E-01  6.962806323389E-03  1.543588928839E-02
C47 -2.910808650319E-01  4.930371936766E-01 -4.845641107116E-01
C48  2.910808650319E-01 -6.962806323389E-03 -1.543588928839E-02
C49  3.080940104195E-01 -4.316796536666E-01 -3.028894737321E-01
C50 -3.080940104195E-01  6.832034633339E-02 -1.971105262679E-01
C51 -3.080940104195E-01  4.316796536666E-01  3.028894737321E-01
C52  3.080940104195E-01 -6.832034633339E-02  1.971105262679E-01
H53  2.621418600058E-01 -4.013425424299E-01 -1.948700646238E-01
H54 -2.621418600058E-01  9.865745757006E-02 -3.051299353762E-01
H55 -2.621418600058E-01  4.013425424299E-01  1.948700646238E-01
H56  2.621418600058E-01 -9.865745757006E-02  3.051299353762E-01
C57  3.801462178743E-01 -4.122676570008E-01 -2.304560957006E-01
C58 -3.801462178743E-01  8.773234299919E-02 -2.695439042994E-01
C59 -3.801462178743E-01  4.122676570008E-01  2.304560957006E-01
C60  3.801462178743E-01 -8.773234299919E-02  2.695439042994E-01
H61  3.918397124107E-01 -3.622428245123E-01 -6.795385278859E-02
H62 -3.918397124107E-01  1.377571754877E-01 -4.320461472114E-01
H63 -3.918397124107E-01  3.622428245123E-01  6.795385278859E-02
H64  3.918397124107E-01 -1.377571754877E-01  4.320461472114E-01
C65  4.414028711127E-01 -4.549494368944E-01 -3.631874206580E-01
C66 -4.414028711127E-01  4.505056310561E-02 -1.368125793420E-01
C67 -4.414028711127E-01  4.549494368944E-01  3.631874206580E-01
C68  4.414028711127E-01 -4.505056310561E-02  1.368125793420E-01
C69  4.251337571955E-01  4.754048070964E-01  4.271925725753E-01
C70 -4.251337571955E-01 -2.459519290359E-02  7.280742742473E-02
C71 -4.251337571955E-01 -4.754048070964E-01 -4.271925725753E-01
C72  4.251337571955E-01  2.459519290359E-02 -7.280742742473E-02
C73  3.490848330723E-01  4.589950905066E-01  3.566202782161E-01
C74 -3.490848330723E-01 -4.100490949337E-02  1.433797217839E-01
C75 -3.490848330723E-01 -4.589950905066E-01 -3.566202782161E-01
C76  3.490848330723E-01  4.100490949337E-02 -1.433797217839E-01
H77  3.381529597834E-01  4.125210005734E-01  1.919174613956E-01
H78 -3.381529597834E-01 -8.747899942663E-02  3.080825386044E-01
H79 -3.381529597834E-01 -4.125210005734E-01 -1.919174613956E-01
H80  3.381529597834E-01  8.747899942663E-02 -3.080825386044E-01
C81 -4.843521704517E-01 -4.310992515754E-01 -2.951925002600E-01
C82  4.843521704517E-01  6.890074842460E-02 -2.048074997400E-01
C83  4.843521704517E-01  4.310992515754E-01  2.951925002600E-01
C84 -4.843521704517E-01 -6.890074842460E-02  2.048074997400E-01
H85 -4.723639420330E-01 -3.758258641033E-01 -1.350140900079E-01
H86  4.723639420330E-01  1.241741358967E-01 -3.649859099921E-01
H87  4.723639420330E-01  3.758258641033E-01  1.350140900079E-01
H88 -4.723639420330E-01 -1.241741358967E-01  3.649859099921E-01


#===END

data_OPT_STEP_38

_symmetry_space_group_name_H-M 'P 1'
_cell_length_a     18.07372133
_cell_length_b      7.74022450
_cell_length_c      6.31687856
_cell_angle_alpha   90.000000
_cell_angle_beta   91.440254
_cell_angle_gamma   90.000000

loop_
_atom_site_label
_atom_site_fract_x
_atom_site_fract_y
_atom_site_fract_z
C1  1.597417612597E-01 -3.794354726528E-01  4.835053809027E-01
C2 -1.597417612597E-01  1.205645273472E-01  1.649461909726E-02
C3 -1.597417612597E-01  3.794354726528E-01 -4.835053809027E-01
C4  1.597417612597E-01 -1.205645273472E-01 -1.649461909726E-02
H5  1.768888029260E-01 -2.794518610680E-01 -3.990805973974E-01
H6 -1.768888029260E-01  2.205481389320E-01 -1.009194026026E-01
H7 -1.768888029260E-01  2.794518610680E-01  3.990805973974E-01
H8  1.768888029260E-01 -2.205481389320E-01  1.009194026026E-01
C9  8.558517337383E-02 -3.833323789315E-01  4.111235554938E-01
C10 -8.558517337383E-02  1.166676210685E-01  8.887644450617E-02
C11 -8.558517337383E-02  3.833323789315E-01 -4.111235554938E-01
C12  8.558517337383E-02 -1.166676210685E-01 -8.887644450617E-02
H13  4.561025486885E-02 -2.898885372505E-01  4.770373437091E-01
H14 -4.561025486885E-02  2.101114627495E-01  2.296265629090E-02
H15 -4.561025486885E-02  2.898885372505E-01 -4.770373437091E-01
H16  4.561025486885E-02 -2.101114627495E-01 -2.296265629090E-02
C17  6.216423293618E-02  4.957523575893E-01  2.569916452423E-01
C18 -6.216423293618E-02 -4.247642410689E-03  2.430083547577E-01
C19 -6.216423293618E-02 -4.957523575893E-01 -2.569916452423E-01
C20  6.216423293618E-02  4.247642410688E-03 -2.430083547577E-01
H21  3.166354403331E-03  4.922738229620E-01  2.025077209668E-01
H22 -3.166354403331E-03 -7.726177038045E-03  2.974922790332E-01
H23 -3.166354403331E-03 -4.922738229620E-01 -2.025077209668E-01
H24  3.166354403331E-03  7.726177038045E-03 -2.974922790332E-01
C25  1.139323654863E-01  3.786760027322E-01  1.754597012009E-01
C26 -1.139323654863E-01 -1.213239972678E-01  3.245402987991E-01
C27 -1.139323654863E-01 -3.786760027322E-01 -1.754597012009E-01
C28  1.139323654863E-01  1.213239972678E-01 -3.245402987991E-01
H29  9.656810338832E-02  2.814632708921E-01  5.477117879730E-02
H30 -9.656810338832E-02 -2.185367291079E-01  4.452288212027E-01
H31 -9.656810338832E-02 -2.814632708921E-01 -5.477117879730E-02
H32  9.656810338832E-02  2.185367291079E-01 -4.452288212027E-01
C33  1.879755138837E-01  3.809327293187E-01  2.499767693621E-01
C34 -1.879755138837E-01 -1.190672706813E-01  2.500232306379E-01
C35 -1.879755138837E-01 -3.809327293187E-01 -2.499767693621E-01
C36  1.879755138837E-01  1.190672706813E-01 -2.500232306379E-01
H37  2.270849149658E-01  2.828539907892E-01  1.898495115815E-01
H38 -2.270849149658E-01 -2.171460092108E-01  3.101504884185E-01
H39 -2.270849149658E-01 -2.828539907892E-01 -1.898495115815E-01
H40  2.270849149658E-01  2.171460092108E-01 -3.101504884185E-01
C41  2.122188601286E-01 -4.980447257630E-01  4.051563382542E-01
C42 -2.122188601286E-01  1.955274237018E-03  9.484366174583E-02
C43 -2.122188601286E-01  4.980447257630E-01 -4.051563382542E-01
C44  2.122188601286E-01 -1.955274237018E-03 -9.484366174583E-02
C45  2.910728053260E-01 -4.929168895683E-01  4.842527251709E-01
C46 -2.910728053260E-01  7.083110431707E-03  1.574727482907E-02
C47 -2.910728053260E-01  4.929168895683E-01 -4.842527251709E-01
C48  2.910728053260E-01 -7.083110431707E-03 -1.574727482907E-02
C49  3.081731259641E-01 -4.318332003681E-01 -3.031194449795E-01
C50 -3.081731259641E-01  6.816679963190E-02 -1.968805550205E-01
C51 -3.081731259641E-01  4.318332003681E-01  3.031194449795E-01
C52  3.081731259641E-01 -6.816679963190E-02  1.968805550205E-01
H53  2.622711713330E-01 -4.013375601535E-01 -1.952355920649E-01
H54 -2.622711713330E-01  9.866243984646E-02 -3.047644079351E-01
H55 -2.622711713330E-01  4.013375601535E-01  1.952355920649E-01
H56  2.622711713330E-01 -9.866243984646E-02  3.047644079351E-01
C57  3.802549200330E-01 -4.123457793094E-01 -2.306441178002E-01
C58 -3.802549200330E-01  8.765422069056E-02 -2.693558821998E-01
C59 -3.802549200330E-01  4.123457793094E-01  2.306441178002E-01
C60  3.802549200330E-01 -8.765422069056E-02  2.693558821998E-01
H61  3.920208883985E-01 -3.623965290010E-01 -6.811273239400E-02
H62 -3.920208883985E-01  1.376034709990E-01 -4.318872676060E-01
H63 -3.920208883985E-01  3.623965290010E-01  6.811273239400E-02
H64  3.920208883985E-01 -1.376034709990E-01  4.318872676060E-01
C65  4.414584589250E-01 -4.550295792353E-01 -3.632580421605E-01
C66 -4.414584589250E-01  4.497042076475E-02 -1.367419578395E-01
C67 -4.414584589250E-01  4.550295792353E-01  3.632580421605E-01
C68  4.414584589250E-01 -4.497042076475E-02  1.367419578395E-01
C69  4.251024482382E-01  4.754453293906E-01  4.270888921897E-01
C70 -4.251024482382E-01 -2.455467060944E-02  7.291110781032E-02
C71 -4.251024482382E-01 -4.754453293906E-01 -4.270888921897E-01
C72  4.251024482382E-01  2.455467060944E-02 -7.291110781032E-02
C73  3.490207111635E-01  4.591070671966E-01  3.564106610531E-01
C74 -3.490207111635E-01 -4.089293280342E-02  1.435893389469E-01
C75 -3.490207111635E-01 -4.591070671966E-01 -3.564106610531E-01
C76  3.490207111635E-01  4.089293280342E-02 -1.435893389469E-01
H77  3.380254655570E-01  4.127645685204E-01  1.916562876680E-01
H78 -3.380254655570E-01 -8.723543147959E-02  3.083437123320E-01
H79 -3.380254655570E-01 -4.127645685204E-01 -1.916562876680E-01
H80  3.380254655570E-01  8.723543147959E-02 -3.083437123320E-01
C81 -4.842696986266E-01 -4.311530955996E-01 -2.951803213125E-01
C82  4.842696986266E-01  6.884690440042E-02 -2.048196786875E-01
C83  4.842696986266E-01  4.311530955996E-01  2.951803213125E-01
C84 -4.842696986266E-01 -6.884690440042E-02  2.048196786875E-01
H85 -4.722149366615E-01 -3.760963108374E-01 -1.349201769510E-01
H86  4.722149366615E-01  1.239036891626E-01 -3.650798230490E-01
H87  4.722149366615E-01  3.760963108374E-01  1.349201769510E-01
H88 -4.722149366615E-01 -1.239036891626E-01  3.650798230490E-01


#===END

data_OPT_STEP_39

_symmetry_space_group_name_H-M 'P 1'
_cell_length_a     18.07477159
_cell_length_b      7.72002406
_cell_length_c      6.32058167
_cell_angle_alpha   90.000000
_cell_angle_beta   91.622696
_cell_angle_gamma   90.000000

loop_
_atom_site_label
_atom_site_fract_x
_atom_site_fract_y
_atom_site_fract_z
C1  1.596525907196E-01 -3.798156934361E-01  4.838983234499E-01
C2 -1.596525907196E-01  1.201843065639E-01  1.610167655009E-02
C3 -1.596525907196E-01  3.798156934361E-01 -4.838983234499E-01
C4  1.596525907196E-01 -1.201843065639E-01 -1.610167655009E-02
H5  1.768082540311E-01 -2.802337817800E-01 -3.978302369174E-01
H6 -1.768082540311E-01  2.197662182200E-01 -1.021697630826E-01
H7 -1.768082540311E-01  2.802337817800E-01  3.978302369174E-01
H8  1.768082540311E-01 -2.197662182200E-01  1.021697630826E-01
C9  8.543160673093E-02 -3.836757397694E-01  4.114699613530E-01
C10 -8.543160673093E-02  1.163242602306E-01  8.853003864698E-02
C11 -8.543160673093E-02  3.836757397694E-01 -4.114699613530E-01
C12  8.543160673093E-02 -1.163242602306E-01 -8.853003864698E-02
H13  4.545852339074E-02 -2.905677801287E-01  4.781691136454E-01
H14 -4.545852339074E-02  2.094322198713E-01  2.183088635461E-02
H15 -4.545852339074E-02  2.905677801287E-01 -4.781691136454E-01
H16  4.545852339074E-02 -2.094322198713E-01 -2.183088635461E-02
C17  6.194172597231E-02  4.957732971765E-01  2.564529264315E-01
C18 -6.194172597231E-02 -4.226702823522E-03  2.435470735685E-01
C19 -6.194172597231E-02 -4.957732971765E-01 -2.564529264315E-01
C20  6.194172597231E-02  4.226702823521E-03 -2.435470735685E-01
H21  2.863214662163E-03  4.924034464958E-01  2.020371169464E-01
H22 -2.863214662163E-03 -7.596553504185E-03  2.979628830536E-01
H23 -2.863214662163E-03 -4.924034464958E-01 -2.020371169464E-01
H24  2.863214662163E-03  7.596553504184E-03 -2.979628830536E-01
C25  1.137548423405E-01  3.792722447287E-01  1.737434723941E-01
C26 -1.137548423405E-01 -1.207277552713E-01  3.262565276059E-01
C27 -1.137548423405E-01 -3.792722447287E-01 -1.737434723941E-01
C28  1.137548423405E-01  1.207277552713E-01 -3.262565276059E-01
H29  9.638813615477E-02  2.825872789841E-01  5.212028776806E-02
H30 -9.638813615477E-02 -2.174127210159E-01  4.478797122319E-01
H31 -9.638813615477E-02 -2.825872789841E-01 -5.212028776806E-02
H32  9.638813615477E-02  2.174127210159E-01 -4.478797122319E-01
C33  1.878685921551E-01  3.815424947290E-01  2.482703077274E-01
C34 -1.878685921551E-01 -1.184575052710E-01  2.517296922726E-01
C35 -1.878685921551E-01 -3.815424947290E-01 -2.482703077274E-01
C36  1.878685921551E-01  1.184575052710E-01 -2.517296922726E-01
H37  2.269958742320E-01  2.838572056633E-01  1.871748451063E-01
H38 -2.269958742320E-01 -2.161427943367E-01  3.128251548937E-01
H39 -2.269958742320E-01 -2.838572056633E-01 -1.871748451063E-01
H40  2.269958742320E-01  2.161427943367E-01 -3.128251548937E-01
C41  2.121658730174E-01 -4.979613079067E-01  4.045140196857E-01
C42 -2.121658730174E-01  2.038692093343E-03  9.548598031426E-02
C43 -2.121658730174E-01  4.979613079067E-01 -4.045140196857E-01
C44  2.121658730174E-01 -2.038692093344E-03 -9.548598031426E-02
C45  2.910605624824E-01 -4.933629975949E-01  4.839883767543E-01
C46 -2.910605624824E-01  6.637002405083E-03  1.601162324570E-02
C47 -2.910605624824E-01  4.933629975949E-01 -4.839883767543E-01
C48  2.910605624824E-01 -6.637002405083E-03 -1.601162324570E-02
C49  3.083434484485E-01 -4.322797050913E-01 -3.033595508868E-01
C50 -3.083434484485E-01  6.772029490866E-02 -1.966404491132E-01
C51 -3.083434484485E-01  4.322797050913E-01  3.033595508868E-01
C52  3.083434484485E-01 -6.772029490866E-02  1.966404491132E-01
H53  2.625509927685E-01 -4.023050848112E-01 -1.953825219039E-01
H54 -2.625509927685E-01  9.769491518878E-02 -3.046174780961E-01
H55 -2.625509927685E-01  4.023050848112E-01  1.953825219039E-01
H56  2.625509927685E-01 -9.769491518878E-02  3.046174780961E-01
C57  3.804806100751E-01 -4.125359543840E-01 -2.308586769340E-01
C58 -3.804806100751E-01  8.746404561602E-02 -2.691413230660E-01
C59 -3.804806100751E-01  4.125359543840E-01  2.308586769340E-01
C60  3.804806100751E-01 -8.746404561602E-02  2.691413230660E-01
H61  3.923961599322E-01 -3.628710302931E-01 -6.817846789267E-02
H62 -3.923961599322E-01  1.371289697069E-01 -4.318215321073E-01
H63 -3.923961599322E-01  3.628710302931E-01  6.817846789267E-02
H64  3.923961599322E-01 -1.371289697069E-01  4.318215321073E-01
C65  4.415749186048E-01 -4.552334648809E-01 -3.633033037800E-01
C66 -4.415749186048E-01  4.476653511912E-02 -1.366966962200E-01
C67 -4.415749186048E-01  4.552334648809E-01  3.633033037800E-01
C68  4.415749186048E-01 -4.476653511912E-02  1.366966962200E-01
C69  4.250499899891E-01  4.750858258654E-01  4.270971784901E-01
C70 -4.250499899891E-01 -2.491417413455E-02  7.290282150991E-02
C71 -4.250499899891E-01 -4.750858258654E-01 -4.270971784901E-01
C72  4.250499899891E-01  2.491417413455E-02 -7.290282150991E-02
C73  3.489096714283E-01  4.587954804299E-01  3.562572459412E-01
C74 -3.489096714283E-01 -4.120451957006E-02  1.437427540588E-01
C75 -3.489096714283E-01 -4.587954804299E-01 -3.562572459412E-01
C76  3.489096714283E-01  4.120451957006E-02 -1.437427540588E-01
H77  3.377971501567E-01  4.128324051359E-01  1.913125410481E-01
H78 -3.377971501567E-01 -8.716759486412E-02  3.086874589519E-01
H79 -3.377971501567E-01 -4.128324051359E-01 -1.913125410481E-01
H80  3.377971501567E-01  8.716759486412E-02 -3.086874589519E-01
C81 -4.841084488499E-01 -4.310102594603E-01 -2.952084983390E-01
C82  4.841084488499E-01  6.898974053969E-02 -2.047915016610E-01
C83  4.841084488499E-01  4.310102594603E-01  2.952084983390E-01
C84 -4.841084488499E-01 -6.898974053969E-02  2.047915016610E-01
H85 -4.719200193046E-01 -3.760586203182E-01 -1.349080518501E-01
H86  4.719200193046E-01  1.239413796818E-01 -3.650919481499E-01
H87  4.719200193046E-01  3.760586203182E-01  1.349080518501E-01
H88 -4.719200193046E-01 -1.239413796818E-01  3.650919481499E-01


#===END

data_OPT_STEP_40

_symmetry_space_group_name_H-M 'P 1'
_cell_length_a     18.07039174
_cell_length_b      7.71763354
_cell_length_c      6.32508281
_cell_angle_alpha   90.000000
_cell_angle_beta   91.629018
_cell_angle_gamma   90.000000

loop_
_atom_site_label
_atom_site_fract_x
_atom_site_fract_y
_atom_site_fract_z
C1  1.595089913755E-01 -3.799358598545E-01  4.840851502630E-01
C2 -1.595089913755E-01  1.200641401455E-01  1.591484973705E-02
C3 -1.595089913755E-01  3.799358598545E-01 -4.840851502630E-01
C4  1.595089913755E-01 -1.200641401455E-01 -1.591484973705E-02
H5  1.766194623947E-01 -2.804749877845E-01 -3.974402289733E-01
H6 -1.766194623947E-01  2.195250122155E-01 -1.025597710267E-01
H7 -1.766194623947E-01  2.804749877844E-01  3.974402289733E-01
H8  1.766194623947E-01 -2.195250122156E-01  1.025597710267E-01
C9  8.528748944009E-02 -3.837928192372E-01  4.115712102305E-01
C10 -8.528748944009E-02  1.162071807628E-01  8.842878976950E-02
C11 -8.528748944009E-02  3.837928192372E-01 -4.115712102305E-01
C12  8.528748944009E-02 -1.162071807628E-01 -8.842878976950E-02
H13  4.528001037136E-02 -2.908402984181E-01  4.784539035768E-01
H14 -4.528001037136E-02  2.091597015819E-01  2.154609642321E-02
H15 -4.528001037136E-02  2.908402984181E-01 -4.784539035768E-01
H16  4.528001037136E-02 -2.091597015819E-01 -2.154609642321E-02
C17  6.185632889440E-02  4.958928230089E-01  2.562628433818E-01
C18 -6.185632889440E-02 -4.107176991104E-03  2.437371566182E-01
C19 -6.185632889440E-02 -4.958928230089E-01 -2.562628433818E-01
C20  6.185632889440E-02  4.107176991104E-03 -2.437371566182E-01
H21  2.774789403109E-03  4.925272487230E-01  2.017917963050E-01
H22 -2.774789403109E-03 -7.472751276977E-03  2.982082036950E-01
H23 -2.774789403109E-03 -4.925272487230E-01 -2.017917963050E-01
H24  2.774789403109E-03  7.472751276977E-03 -2.982082036950E-01
C25  1.137297461756E-01  3.795857260677E-01  1.733865109983E-01
C26 -1.137297461756E-01 -1.204142739323E-01  3.266134890017E-01
C27 -1.137297461756E-01 -3.795857260677E-01 -1.733865109983E-01
C28  1.137297461756E-01  1.204142739323E-01 -3.266134890017E-01
H29  9.640673160619E-02  2.830473417850E-01  5.159901822145E-02
H30 -9.640673160619E-02 -2.169526582150E-01  4.484009817786E-01
H31 -9.640673160619E-02 -2.830473417850E-01 -5.159901822145E-02
H32  9.640673160619E-02  2.169526582150E-01 -4.484009817786E-01
C33  1.878424076395E-01  3.818398752921E-01  2.480112916180E-01
C34 -1.878424076395E-01 -1.181601247079E-01  2.519887083820E-01
C35 -1.878424076395E-01 -3.818398752921E-01 -2.480112916180E-01
C36  1.878424076395E-01  1.181601247079E-01 -2.519887083820E-01
H37  2.270046920652E-01  2.842959176615E-01  1.867564066683E-01
H38 -2.270046920652E-01 -2.157040823385E-01  3.132435933317E-01
H39 -2.270046920652E-01 -2.842959176615E-01 -1.867564066683E-01
H40  2.270046920652E-01  2.157040823385E-01 -3.132435933317E-01
C41  2.120824941796E-01 -4.979182671976E-01  4.045505430207E-01
C42 -2.120824941796E-01  2.081732802433E-03  9.544945697933E-02
C43 -2.120824941796E-01  4.979182671976E-01 -4.045505430207E-01
C44  2.120824941796E-01 -2.081732802434E-03 -9.544945697933E-02
C45  2.910097244629E-01 -4.931460179185E-01  4.839019559888E-01
C46 -2.910097244629E-01  6.853982081509E-03  1.609804401117E-02
C47 -2.910097244629E-01  4.931460179185E-01 -4.839019559888E-01
C48  2.910097244629E-01 -6.853982081509E-03 -1.609804401117E-02
C49  3.083044733865E-01 -4.323582574308E-01 -3.034550963448E-01
C50 -3.083044733865E-01  6.764174256918E-02 -1.965449036552E-01
C51 -3.083044733865E-01  4.323582574308E-01  3.034550963448E-01
C52  3.083044733865E-01 -6.764174256918E-02  1.965449036552E-01
H53  2.625163305472E-01 -4.024269039151E-01 -1.955309925769E-01
H54 -2.625163305472E-01  9.757309608487E-02 -3.044690074231E-01
H55 -2.625163305472E-01  4.024269039151E-01  1.955309925769E-01
H56  2.625163305472E-01 -9.757309608487E-02  3.044690074231E-01
C57  3.804585726876E-01 -4.127338206704E-01 -2.309526240754E-01
C58 -3.804585726876E-01  8.726617932963E-02 -2.690473759246E-01
C59 -3.804585726876E-01  4.127338206704E-01  2.309526240754E-01
C60  3.804585726876E-01 -8.726617932963E-02  2.690473759246E-01
H61  3.923812152963E-01 -3.631668903863E-01 -6.832015842119E-02
H62 -3.923812152963E-01  1.368331096137E-01 -4.316798415788E-01
H63 -3.923812152963E-01  3.631668903863E-01  6.832015842119E-02
H64  3.923812152963E-01 -1.368331096137E-01  4.316798415788E-01
C65  4.415642894425E-01 -4.552488116106E-01 -3.633837690335E-01
C66 -4.415642894425E-01  4.475118838937E-02 -1.366162309665E-01
C67 -4.415642894425E-01  4.552488116106E-01  3.633837690335E-01
C68  4.415642894425E-01 -4.475118838937E-02  1.366162309665E-01
C69  4.250306396918E-01  4.753214890636E-01  4.270346098172E-01
C70 -4.250306396918E-01 -2.467851093636E-02  7.296539018285E-02
C71 -4.250306396918E-01 -4.753214890636E-01 -4.270346098172E-01
C72  4.250306396918E-01  2.467851093636E-02 -7.296539018285E-02
C73  3.488704357355E-01  4.591107110110E-01  3.562092284494E-01
C74 -3.488704357355E-01 -4.088928898900E-02  1.437907715506E-01
C75 -3.488704357355E-01 -4.591107110110E-01 -3.562092284494E-01
C76  3.488704357355E-01  4.088928898900E-02 -1.437907715506E-01
H77  3.377557218530E-01  4.132698932886E-01  1.913204617384E-01
H78 -3.377557218530E-01 -8.673010671137E-02  3.086795382616E-01
H79 -3.377557218530E-01 -4.132698932886E-01 -1.913204617384E-01
H80  3.377557218530E-01  8.673010671137E-02 -3.086795382616E-01
C81 -4.841008150838E-01 -4.311832348995E-01 -2.952525080242E-01
C82  4.841008150838E-01  6.881676510049E-02 -2.047474919758E-01
C83  4.841008150838E-01  4.311832348995E-01  2.952525080242E-01
C84 -4.841008150838E-01 -6.881676510049E-02  2.047474919758E-01
H85 -4.719051818806E-01 -3.762933150831E-01 -1.350294497427E-01
H86  4.719051818806E-01  1.237066849169E-01 -3.649705502573E-01
H87  4.719051818806E-01  3.762933150831E-01  1.350294497427E-01
H88 -4.719051818806E-01 -1.237066849169E-01  3.649705502573E-01


#===END

data_OPT_STEP_41

_symmetry_space_group_name_H-M 'P 1'
_cell_length_a     18.07911456
_cell_length_b      7.70220546
_cell_length_c      6.33474554
_cell_angle_alpha   90.000000
_cell_angle_beta   91.681182
_cell_angle_gamma   90.000000

loop_
_atom_site_label
_atom_site_fract_x
_atom_site_fract_y
_atom_site_fract_z
C1  1.596329365499E-01 -3.798696547607E-01  4.839676479625E-01
C2 -1.596329365499E-01  1.201303452393E-01  1.603235203746E-02
C3 -1.596329365499E-01  3.798696547607E-01 -4.839676479625E-01
C4  1.596329365499E-01 -1.201303452393E-01 -1.603235203746E-02
H5  1.767707515424E-01 -2.803341879633E-01 -3.975791779331E-01
H6 -1.767707515424E-01  2.196658120367E-01 -1.024208220669E-01
H7 -1.767707515424E-01  2.803341879633E-01  3.975791779331E-01
H8  1.767707515424E-01 -2.196658120367E-01  1.024208220669E-01
C9  8.543097060068E-02 -3.836535669557E-01  4.113914693125E-01
C10 -8.543097060068E-02  1.163464330443E-01  8.860853068750E-02
C11 -8.543097060068E-02  3.836535669557E-01 -4.113914693125E-01
C12  8.543097060068E-02 -1.163464330443E-01 -8.860853068750E-02
H13  4.546981507518E-02 -2.905641121986E-01  4.780131753852E-01
H14 -4.546981507518E-02  2.094358878014E-01  2.198682461479E-02
H15 -4.546981507518E-02  2.905641121986E-01 -4.780131753852E-01
H16  4.546981507518E-02 -2.094358878014E-01 -2.198682461479E-02
C17  6.198299090743E-02  4.960222510975E-01  2.560613872280E-01
C18 -6.198299090743E-02 -3.977748902534E-03  2.439386127720E-01
C19 -6.198299090743E-02 -4.960222510975E-01 -2.560613872280E-01
C20  6.198299090743E-02  3.977748902534E-03 -2.439386127720E-01
H21  2.935749207741E-03  4.929325743348E-01  2.013787865806E-01
H22 -2.935749207741E-03 -7.067425665181E-03  2.986212134194E-01
H23 -2.935749207741E-03 -4.929325743348E-01 -2.013787865806E-01
H24  2.935749207741E-03  7.067425665181E-03 -2.986212134194E-01
C25  1.137843440848E-01  3.794829633127E-01  1.733761920066E-01
C26 -1.137843440848E-01 -1.205170366873E-01  3.266238079934E-01
C27 -1.137843440848E-01 -3.794829633127E-01 -1.733761920066E-01
C28  1.137843440848E-01  1.205170366873E-01 -3.266238079934E-01
H29  9.643546887333E-02  2.828361664097E-01  5.168155073280E-02
H30 -9.643546887333E-02 -2.171638335903E-01  4.483184492672E-01
H31 -9.643546887333E-02 -2.828361664097E-01 -5.168155073280E-02
H32  9.643546887333E-02  2.171638335903E-01 -4.483184492672E-01
C33  1.878715991185E-01  3.816375677026E-01  2.480590289494E-01
C34 -1.878715991185E-01 -1.183624322974E-01  2.519409710506E-01
C35 -1.878715991185E-01 -3.816375677026E-01 -2.480590289494E-01
C36  1.878715991185E-01  1.183624322974E-01 -2.519409710506E-01
H37  2.270148639516E-01  2.840144930688E-01  1.867490259006E-01
H38 -2.270148639516E-01 -2.159855069312E-01  3.132509740994E-01
H39 -2.270148639516E-01 -2.840144930688E-01 -1.867490259006E-01
H40  2.270148639516E-01  2.159855069312E-01 -3.132509740994E-01
C41  2.121501339477E-01 -4.980494529406E-01  4.045356927547E-01
C42 -2.121501339477E-01  1.950547059417E-03  9.546430724529E-02
C43 -2.121501339477E-01  4.980494529406E-01 -4.045356927547E-01
C44  2.121501339477E-01 -1.950547059417E-03 -9.546430724529E-02
C45  2.910867139413E-01 -4.930693659793E-01  4.836514693896E-01
C46 -2.910867139413E-01  6.930634020687E-03  1.634853061039E-02
C47 -2.910867139413E-01  4.930693659793E-01 -4.836514693896E-01
C48  2.910867139413E-01 -6.930634020687E-03 -1.634853061039E-02
C49  3.084103539841E-01 -4.327552299519E-01 -3.037715141299E-01
C50 -3.084103539841E-01  6.724477004806E-02 -1.962284858701E-01
C51 -3.084103539841E-01  4.327552299519E-01  3.037715141299E-01
C52  3.084103539841E-01 -6.724477004806E-02  1.962284858701E-01
H53  2.626484230373E-01 -4.025860124681E-01 -1.961275079270E-01
H54 -2.626484230373E-01  9.741398753194E-02 -3.038724920730E-01
H55 -2.626484230373E-01  4.025860124681E-01  1.961275079270E-01
H56  2.626484230373E-01 -9.741398753194E-02  3.038724920730E-01
C57  3.805462862627E-01 -4.133947913578E-01 -2.311662516085E-01
C58 -3.805462862627E-01  8.660520864215E-02 -2.688337483915E-01
C59 -3.805462862627E-01  4.133947913578E-01  2.311662516085E-01
C60  3.805462862627E-01 -8.660520864215E-02  2.688337483915E-01
H61  3.924739813082E-01 -3.639652958943E-01 -6.863393216018E-02
H62 -3.924739813082E-01  1.360347041057E-01 -4.313660678398E-01
H63 -3.924739813082E-01  3.639652958943E-01  6.863393216018E-02
H64  3.924739813082E-01 -1.360347041057E-01  4.313660678398E-01
C65  4.416108320955E-01 -4.555626718998E-01 -3.634943084044E-01
C66 -4.416108320955E-01  4.443732810015E-02 -1.365056915956E-01
C67 -4.416108320955E-01  4.555626718998E-01  3.634943084044E-01
C68  4.416108320955E-01 -4.443732810015E-02  1.365056915956E-01
C69  4.250470852922E-01  4.755035483862E-01  4.269224556170E-01
C70 -4.250470852922E-01 -2.449645161379E-02  7.307754438305E-02
C71 -4.250470852922E-01 -4.755035483862E-01 -4.269224556170E-01
C72  4.250470852922E-01  2.449645161379E-02 -7.307754438305E-02
C73  3.489044396911E-01  4.592831929282E-01  3.561083024090E-01
C74 -3.489044396911E-01 -4.071680707177E-02  1.438916975910E-01
C75 -3.489044396911E-01 -4.592831929282E-01 -3.561083024090E-01
C76  3.489044396911E-01  4.071680707177E-02 -1.438916975910E-01
H77  3.377890050642E-01  4.136179400354E-01  1.913253142982E-01
H78 -3.377890050642E-01 -8.638205996456E-02  3.086746857018E-01
H79 -3.377890050642E-01 -4.136179400354E-01 -1.913253142982E-01
H80  3.377890050642E-01  8.638205996456E-02 -3.086746857018E-01
C81 -4.840699834438E-01 -4.315468476399E-01 -2.953107832092E-01
C82  4.840699834438E-01  6.845315236009E-02 -2.046892167908E-01
C83  4.840699834438E-01  4.315468476399E-01  2.953107832092E-01
C84 -4.840699834438E-01 -6.845315236009E-02  2.046892167908E-01
H85 -4.718567284865E-01 -3.769105372517E-01 -1.351195042315E-01
H86  4.718567284865E-01  1.230894627483E-01 -3.648804957685E-01
H87  4.718567284865E-01  3.769105372517E-01  1.351195042315E-01
H88 -4.718567284865E-01 -1.230894627483E-01  3.648804957685E-01


#===END

data_OPT_STEP_42

_symmetry_space_group_name_H-M 'P 1'
_cell_length_a     18.07016327
_cell_length_b      7.69686157
_cell_length_c      6.34391126
_cell_angle_alpha   90.000000
_cell_angle_beta   91.607192
_cell_angle_gamma   90.000000

loop_
_atom_site_label
_atom_site_fract_x
_atom_site_fract_y
_atom_site_fract_z
C1  1.594546700045E-01 -3.799949594870E-01  4.839985640671E-01
C2 -1.594546700045E-01  1.200050405130E-01  1.600143593295E-02
C3 -1.594546700045E-01  3.799949594870E-01 -4.839985640671E-01
C4  1.594546700045E-01 -1.200050405130E-01 -1.600143593295E-02
H5  1.765011028563E-01 -2.805934510715E-01 -3.973655197367E-01
H6 -1.765011028563E-01  2.194065489285E-01 -1.026344802633E-01
H7 -1.765011028563E-01  2.805934510715E-01  3.973655197367E-01
H8  1.765011028563E-01 -2.194065489285E-01  1.026344802633E-01
C9  8.527370321063E-02 -3.837519807823E-01  4.113723634713E-01
C10 -8.527370321063E-02  1.162480192177E-01  8.862763652868E-02
C11 -8.527370321063E-02  3.837519807823E-01 -4.113723634713E-01
C12  8.527370321063E-02 -1.162480192177E-01 -8.862763652868E-02
H13  4.523631182824E-02 -2.907595509099E-01  4.780872246489E-01
H14 -4.523631182824E-02  2.092404490901E-01  2.191277535109E-02
H15 -4.523631182824E-02  2.907595509099E-01 -4.780872246489E-01
H16  4.523631182824E-02 -2.092404490901E-01 -2.191277535109E-02
C17  6.196080406682E-02  4.961718013332E-01  2.557762486851E-01
C18 -6.196080406682E-02 -3.828198666768E-03  2.442237513149E-01
C19 -6.196080406682E-02 -4.961718013332E-01 -2.557762486851E-01
C20  6.196080406682E-02  3.828198666768E-03 -2.442237513149E-01
H21  2.935014021404E-03  4.931110032804E-01  2.009871653222E-01
H22 -2.935014021404E-03 -6.888996719602E-03  2.990128346778E-01
H23 -2.935014021404E-03 -4.931110032804E-01 -2.009871653222E-01
H24  2.935014021404E-03  6.888996719602E-03 -2.990128346778E-01
C25  1.138740246710E-01  3.798391139732E-01  1.729377963725E-01
C26 -1.138740246710E-01 -1.201608860268E-01  3.270622036275E-01
C27 -1.138740246710E-01 -3.798391139732E-01 -1.729377963725E-01
C28  1.138740246710E-01  1.201608860268E-01 -3.270622036275E-01
H29  9.662971279382E-02  2.834254234627E-01  5.099539122393E-02
H30 -9.662971279382E-02 -2.165745765373E-01  4.490046087761E-01
H31 -9.662971279382E-02 -2.834254234627E-01 -5.099539122393E-02
H32  9.662971279382E-02  2.165745765373E-01 -4.490046087761E-01
C33  1.879405573639E-01  3.819521374365E-01  2.476813423430E-01
C34 -1.879405573639E-01 -1.180478625635E-01  2.523186576570E-01
C35 -1.879405573639E-01 -3.819521374365E-01 -2.476813423430E-01
C36  1.879405573639E-01  1.180478625635E-01 -2.523186576570E-01
H37  2.271666214345E-01  2.844995438006E-01  1.862230830066E-01
H38 -2.271666214345E-01 -2.155004561994E-01  3.137769169934E-01
H39 -2.271666214345E-01 -2.844995438006E-01 -1.862230830066E-01
H40  2.271666214345E-01  2.155004561994E-01 -3.137769169934E-01
C41  2.120835611181E-01 -4.979831846323E-01  4.043826486056E-01
C42 -2.120835611181E-01  2.016815367717E-03  9.561735139440E-02
C43 -2.120835611181E-01  4.979831846323E-01 -4.043826486056E-01
C44  2.120835611181E-01 -2.016815367717E-03 -9.561735139440E-02
C45  2.910053811574E-01 -4.929943824902E-01  4.834519893985E-01
C46 -2.910053811574E-01  7.005617509825E-03  1.654801060149E-02
C47 -2.910053811574E-01  4.929943824902E-01 -4.834519893985E-01
C48  2.910053811574E-01 -7.005617509825E-03 -1.654801060149E-02
C49  3.082151495314E-01 -4.329403553320E-01 -3.041388401096E-01
C50 -3.082151495314E-01  6.705964466796E-02 -1.958611598904E-01
C51 -3.082151495314E-01  4.329403553320E-01  3.041388401096E-01
C52  3.082151495314E-01 -6.705964466796E-02  1.958611598904E-01
H53  2.623838474279E-01 -4.029738847634E-01 -1.965869395606E-01
H54 -2.623838474279E-01  9.702611523663E-02 -3.034130604394E-01
H55 -2.623838474279E-01  4.029738847634E-01  1.965869395606E-01
H56  2.623838474279E-01 -9.702611523663E-02  3.034130604394E-01
C57  3.803400412173E-01 -4.136457477406E-01 -2.315311248733E-01
C58 -3.803400412173E-01  8.635425225943E-02 -2.684688751267E-01
C59 -3.803400412173E-01  4.136457477406E-01  2.315311248733E-01
C60  3.803400412173E-01 -8.635425225943E-02  2.684688751267E-01
H61  3.921803139356E-01 -3.644254408659E-01 -6.910198723112E-02
H62 -3.921803139356E-01  1.355745591341E-01 -4.308980127689E-01
H63 -3.921803139356E-01  3.644254408659E-01  6.910198723112E-02
H64  3.921803139356E-01 -1.355745591341E-01  4.308980127689E-01
C65  4.415073216505E-01 -4.556234217698E-01 -3.636957963950E-01
C66 -4.415073216505E-01  4.437657823025E-02 -1.363042036050E-01
C67 -4.415073216505E-01  4.556234217698E-01  3.636957963950E-01
C68  4.415073216505E-01 -4.437657823025E-02  1.363042036050E-01
C69  4.250557932366E-01  4.757177333252E-01  4.268541027485E-01
C70 -4.250557932366E-01 -2.428226667477E-02  7.314589725153E-02
C71 -4.250557932366E-01 -4.757177333252E-01 -4.268541027485E-01
C72  4.250557932366E-01  2.428226667477E-02 -7.314589725153E-02
C73  3.489227357550E-01  4.595945900867E-01  3.560245290084E-01
C74 -3.489227357550E-01 -4.040540991335E-02  1.439754709916E-01
C75 -3.489227357550E-01 -4.595945900867E-01 -3.560245290084E-01
C76  3.489227357550E-01  4.040540991335E-02 -1.439754709916E-01
H77  3.378902715818E-01  4.141993094794E-01  1.913676302652E-01
H78 -3.378902715818E-01 -8.580069052064E-02  3.086323697348E-01
H79 -3.378902715818E-01 -4.141993094794E-01 -1.913676302652E-01
H80  3.378902715818E-01  8.580069052064E-02 -3.086323697348E-01
C81 -4.841794126694E-01 -4.318004839751E-01 -2.954495088559E-01
C82  4.841794126694E-01  6.819951602491E-02 -2.045504911441E-01
C83  4.841794126694E-01  4.318004839751E-01  2.954495088559E-01
C84 -4.841794126694E-01 -6.819951602491E-02  2.045504911441E-01
H85 -4.720398064018E-01 -3.772392601818E-01 -1.354017963387E-01
H86  4.720398064018E-01  1.227607398182E-01 -3.645982036613E-01
H87  4.720398064018E-01  3.772392601818E-01  1.354017963387E-01
H88 -4.720398064018E-01 -1.227607398182E-01  3.645982036613E-01


#===END

data_OPT_STEP_43

_symmetry_space_group_name_H-M 'P 1'
_cell_length_a     18.05819663
_cell_length_b      7.67148665
_cell_length_c      6.36427438
_cell_angle_alpha   90.000000
_cell_angle_beta   91.485512
_cell_angle_gamma   90.000000

loop_
_atom_site_label
_atom_site_fract_x
_atom_site_fract_y
_atom_site_fract_z
C1  1.591292029797E-01 -3.802494696738E-01  4.840322449500E-01
C2 -1.591292029797E-01  1.197505303262E-01  1.596775505004E-02
C3 -1.591292029797E-01  3.802494696738E-01 -4.840322449500E-01
C4  1.591292029797E-01 -1.197505303262E-01 -1.596775505004E-02
H5  1.759926848122E-01 -2.809410139291E-01 -3.970268101435E-01
H6 -1.759926848122E-01  2.190589860709E-01 -1.029731898565E-01
H7 -1.759926848122E-01  2.809410139291E-01  3.970268101435E-01
H8  1.759926848122E-01 -2.190589860709E-01  1.029731898565E-01
C9  8.498766825281E-02 -3.840029441917E-01  4.113741146743E-01
C10 -8.498766825281E-02  1.159970558083E-01  8.862588532573E-02
C11 -8.498766825281E-02  3.840029441917E-01 -4.113741146743E-01
C12  8.498766825281E-02 -1.159970558083E-01 -8.862588532573E-02
H13  4.479599331555E-02 -2.910930737588E-01  4.782746260983E-01
H14 -4.479599331555E-02  2.089069262412E-01  2.172537390165E-02
H15 -4.479599331555E-02  2.910930737588E-01 -4.782746260983E-01
H16  4.479599331555E-02 -2.089069262412E-01 -2.172537390165E-02
C17  6.194417454444E-02  4.962682132268E-01  2.551869722514E-01
C18 -6.194417454444E-02 -3.731786773223E-03  2.448130277486E-01
C19 -6.194417454444E-02 -4.962682132268E-01 -2.551869722514E-01
C20  6.194417454444E-02  3.731786773223E-03 -2.448130277486E-01
H21  2.953347286234E-03  4.933190435247E-01  2.002426380945E-01
H22 -2.953347286234E-03 -6.680956475255E-03  2.997573619055E-01
H23 -2.953347286234E-03 -4.933190435247E-01 -2.002426380945E-01
H24  2.953347286234E-03  6.680956475255E-03 -2.997573619055E-01
C25  1.140919543562E-01  3.802891156102E-01  1.717920497838E-01
C26 -1.140919543562E-01 -1.197108843898E-01  3.282079502162E-01
C27 -1.140919543562E-01 -3.802891156102E-01 -1.717920497838E-01
C28  1.140919543562E-01  1.197108843898E-01 -3.282079502162E-01
H29  9.706583991066E-02  2.842444755660E-01  4.919721857903E-02
H30 -9.706583991066E-02 -2.157555244340E-01  4.508027814210E-01
H31 -9.706583991066E-02 -2.842444755660E-01 -4.919721857903E-02
H32  9.706583991066E-02  2.157555244340E-01 -4.508027814210E-01
C33  1.881184813445E-01  3.823727211820E-01  2.465772854505E-01
C34 -1.881184813445E-01 -1.176272788180E-01  2.534227145495E-01
C35 -1.881184813445E-01 -3.823727211820E-01 -2.465772854505E-01
C36  1.881184813445E-01  1.176272788180E-01 -2.534227145495E-01
H37  2.275145175242E-01  2.851398678168E-01  1.846318537466E-01
H38 -2.275145175242E-01 -2.148601321832E-01  3.153681462534E-01
H39 -2.275145175242E-01 -2.851398678168E-01 -1.846318537466E-01
H40  2.275145175242E-01  2.148601321832E-01 -3.153681462534E-01
C41  2.119893440724E-01 -4.979599540967E-01  4.038998564953E-01
C42 -2.119893440724E-01  2.040045903277E-03  9.610014350468E-02
C43 -2.119893440724E-01  4.979599540967E-01 -4.038998564953E-01
C44  2.119893440724E-01 -2.040045903277E-03 -9.610014350468E-02
C45  2.908760743843E-01 -4.930379446448E-01  4.829676790952E-01
C46 -2.908760743843E-01  6.962055355202E-03  1.703232090482E-02
C47 -2.908760743843E-01  4.930379446448E-01 -4.829676790952E-01
C48  2.908760743843E-01 -6.962055355202E-03 -1.703232090482E-02
C49  3.078637270391E-01 -4.334754717716E-01 -3.049770733303E-01
C50 -3.078637270391E-01  6.652452822842E-02 -1.950229266697E-01
C51 -3.078637270391E-01  4.334754717716E-01  3.049770733303E-01
C52  3.078637270391E-01 -6.652452822842E-02  1.950229266697E-01
H53  2.619101484876E-01 -4.039528225178E-01 -1.976646805386E-01
H54 -2.619101484876E-01  9.604717748221E-02 -3.023353194614E-01
H55 -2.619101484876E-01  4.039528225178E-01  1.976646805386E-01
H56  2.619101484876E-01 -9.604717748221E-02  3.023353194614E-01
C57  3.799579280385E-01 -4.143661808459E-01 -2.323202029027E-01
C58 -3.799579280385E-01  8.563381915411E-02 -2.676797970973E-01
C59 -3.799579280385E-01  4.143661808459E-01  2.323202029027E-01
C60  3.799579280385E-01 -8.563381915411E-02  2.676797970973E-01
H61  3.916410537714E-01 -3.655007956389E-01 -7.015299840694E-02
H62 -3.916410537714E-01  1.344992043611E-01 -4.298470015931E-01
H63 -3.916410537714E-01  3.655007956389E-01  7.015299840694E-02
H64  3.916410537714E-01 -1.344992043611E-01  4.298470015931E-01
C65  4.413165978283E-01 -4.558931129683E-01 -3.641067409533E-01
C66 -4.413165978283E-01  4.410688703166E-02 -1.358932590467E-01
C67 -4.413165978283E-01  4.558931129683E-01  3.641067409533E-01
C68  4.413165978283E-01 -4.410688703166E-02  1.358932590467E-01
C69  4.250881840803E-01  4.759376008886E-01  4.267486944568E-01
C70 -4.250881840803E-01 -2.406239911142E-02  7.325130554317E-02
C71 -4.250881840803E-01 -4.759376008886E-01 -4.267486944568E-01
C72  4.250881840803E-01  2.406239911142E-02 -7.325130554317E-02
C73  3.489851029257E-01  4.599733417426E-01  3.558688161620E-01
C74 -3.489851029257E-01 -4.002665825742E-02  1.441311838380E-01
C75 -3.489851029257E-01 -4.599733417426E-01 -3.558688161620E-01
C76  3.489851029257E-01  4.002665825742E-02 -1.441311838380E-01
H77  3.381197834126E-01  4.150369738963E-01  1.915164824606E-01
H78 -3.381197834126E-01 -8.496302610368E-02  3.084835175394E-01
H79 -3.381197834126E-01 -4.150369738963E-01 -1.915164824606E-01
H80  3.381197834126E-01  8.496302610368E-02 -3.084835175394E-01
C81 -4.843965178712E-01 -4.322657600969E-01 -2.957514102326E-01
C82  4.843965178712E-01  6.773423990313E-02 -2.042485897674E-01
C83  4.843965178712E-01  4.322657600969E-01  2.957514102326E-01
C84 -4.843965178712E-01 -6.773423990313E-02  2.042485897674E-01
H85 -4.724002857592E-01 -3.778792187473E-01 -1.359932299959E-01
H86  4.724002857592E-01  1.221207812527E-01 -3.640067700041E-01
H87  4.724002857592E-01  3.778792187473E-01  1.359932299959E-01
H88 -4.724002857592E-01 -1.221207812527E-01  3.640067700041E-01


#===END

data_OPT_STEP_44

_symmetry_space_group_name_H-M 'P 1'
_cell_length_a     18.04274647
_cell_length_b      7.64585807
_cell_length_c      6.39067496
_cell_angle_alpha   90.000000
_cell_angle_beta   91.192922
_cell_angle_gamma   90.000000

loop_
_atom_site_label
_atom_site_fract_x
_atom_site_fract_y
_atom_site_fract_z
C1  1.588054122439E-01 -3.803702095317E-01  4.834621169716E-01
C2 -1.588054122439E-01  1.196297904683E-01  1.653788302841E-02
C3 -1.588054122439E-01  3.803702095317E-01 -4.834621169716E-01
C4  1.588054122439E-01 -1.196297904683E-01 -1.653788302841E-02
H5  1.753642280795E-01 -2.812760050758E-01 -3.972645423738E-01
H6 -1.753642280795E-01  2.187239949242E-01 -1.027354576262E-01
H7 -1.753642280795E-01  2.812760050758E-01  3.972645423738E-01
H8  1.753642280795E-01 -2.187239949242E-01  1.027354576262E-01
C9  8.477389141068E-02 -3.840282089072E-01  4.107592684677E-01
C10 -8.477389141068E-02  1.159717910928E-01  8.924073153233E-02
C11 -8.477389141068E-02  3.840282089072E-01 -4.107592684677E-01
C12  8.477389141068E-02 -1.159717910928E-01 -8.924073153233E-02
H13  4.431981948081E-02 -2.912686144450E-01  4.777447217740E-01
H14 -4.431981948081E-02  2.087313855550E-01  2.225527822603E-02
H15 -4.431981948081E-02  2.912686144450E-01 -4.777447217740E-01
H16  4.431981948081E-02 -2.087313855550E-01 -2.225527822603E-02
C17  6.213765347933E-02  4.965277272424E-01  2.542931850318E-01
C18 -6.213765347933E-02 -3.472272757589E-03  2.457068149682E-01
C19 -6.213765347933E-02 -4.965277272424E-01 -2.542931850318E-01
C20  6.213765347933E-02  3.472272757588E-03 -2.457068149682E-01
H21  3.237340259605E-03  4.936088861965E-01  1.992505816505E-01
H22 -3.237340259605E-03 -6.391113803487E-03  3.007494183495E-01
H23 -3.237340259605E-03 -4.936088861965E-01 -1.992505816505E-01
H24  3.237340259605E-03  6.391113803486E-03 -3.007494183495E-01
C25  1.145681589479E-01  3.807509778161E-01  1.706780524965E-01
C26 -1.145681589479E-01 -1.192490221839E-01  3.293219475035E-01
C27 -1.145681589479E-01 -3.807509778161E-01 -1.706780524965E-01
C28  1.145681589479E-01  1.192490221839E-01 -3.293219475035E-01
H29  9.786915414010E-02  2.850816429485E-01  4.757276429926E-02
H30 -9.786915414010E-02 -2.149183570515E-01  4.524272357007E-01
H31 -9.786915414010E-02 -2.850816429485E-01 -4.757276429926E-02
H32  9.786915414010E-02  2.149183570515E-01 -4.524272357007E-01
C33  1.884827144724E-01  3.827072778717E-01  2.454890022654E-01
C34 -1.884827144724E-01 -1.172927221283E-01  2.545109977346E-01
C35 -1.884827144724E-01 -3.827072778717E-01 -2.454890022654E-01
C36  1.884827144724E-01  1.172927221283E-01 -2.545109977346E-01
H37  2.281211168609E-01  2.856853859516E-01  1.832351597297E-01
H38 -2.281211168609E-01 -2.143146140484E-01  3.167648402703E-01
H39 -2.281211168609E-01 -2.856853859516E-01 -1.832351597297E-01
H40  2.281211168609E-01  2.143146140484E-01 -3.167648402703E-01
C41  2.119568631761E-01 -4.978770969986E-01  4.030502566578E-01
C42 -2.119568631761E-01  2.122903001394E-03  9.694974334223E-02
C43 -2.119568631761E-01  4.978770969986E-01 -4.030502566578E-01
C44  2.119568631761E-01 -2.122903001394E-03 -9.694974334223E-02
C45  2.907201668535E-01 -4.932269809936E-01  4.822569915502E-01
C46 -2.907201668535E-01  6.773019006439E-03  1.774300844975E-02
C47 -2.907201668535E-01  4.932269809936E-01 -4.822569915502E-01
C48  2.907201668535E-01 -6.773019006440E-03 -1.774300844975E-02
C49  3.072266350339E-01 -4.341046815341E-01 -3.062657317878E-01
C50 -3.072266350339E-01  6.589531846591E-02 -1.937342682122E-01
C51 -3.072266350339E-01  4.341046815341E-01  3.062657317878E-01
C52  3.072266350339E-01 -6.589531846591E-02  1.937342682122E-01
H53  2.609816357982E-01 -4.049685154452E-01 -1.993843342525E-01
H54 -2.609816357982E-01  9.503148455482E-02 -3.006156657475E-01
H55 -2.609816357982E-01  4.049685154452E-01  1.993843342525E-01
H56  2.609816357982E-01 -9.503148455482E-02  3.006156657475E-01
C57  3.792221922208E-01 -4.149771485639E-01 -2.335819524799E-01
C58 -3.792221922208E-01  8.502285143608E-02 -2.664180475201E-01
C59 -3.792221922208E-01  4.149771485639E-01  2.335819524799E-01
C60  3.792221922208E-01 -8.502285143608E-02  2.664180475201E-01
H61  3.905255379663E-01 -3.666288263164E-01 -7.177087852299E-02
H62 -3.905255379663E-01  1.333711736836E-01 -4.282291214770E-01
H63 -3.905255379663E-01  3.666288263164E-01  7.177087852299E-02
H64  3.905255379663E-01 -1.333711736836E-01  4.282291214770E-01
C65  4.409471676044E-01 -4.562544757297E-01 -3.646832724594E-01
C66 -4.409471676044E-01  4.374552427034E-02 -1.353167275406E-01
C67 -4.409471676044E-01  4.562544757297E-01  3.646832724594E-01
C68  4.409471676044E-01 -4.374552427034E-02  1.353167275406E-01
C69  4.251928329495E-01  4.760134872202E-01  4.266763873861E-01
C70 -4.251928329495E-01 -2.398651277977E-02  7.332361261386E-02
C71 -4.251928329495E-01 -4.760134872202E-01 -4.266763873861E-01
C72  4.251928329495E-01  2.398651277977E-02 -7.332361261386E-02
C73  3.491923924245E-01  4.601733299625E-01  3.557065798088E-01
C74 -3.491923924245E-01 -3.982667003746E-02  1.442934201912E-01
C75 -3.491923924245E-01 -4.601733299625E-01 -3.557065798088E-01
C76  3.491923924245E-01  3.982667003746E-02 -1.442934201912E-01
H77  3.387038840406E-01  4.158214872851E-01  1.917578082094E-01
H78 -3.387038840406E-01 -8.417851271492E-02  3.082421917906E-01
H79 -3.387038840406E-01 -4.158214872851E-01 -1.917578082094E-01
H80  3.387038840406E-01  8.417851271492E-02 -3.082421917906E-01
C81 -4.848553438770E-01 -4.327673669063E-01 -2.962230219420E-01
C82  4.848553438770E-01  6.723263309366E-02 -2.037769780580E-01
C83  4.848553438770E-01  4.327673669063E-01  2.962230219420E-01
C84 -4.848553438770E-01 -6.723263309366E-02  2.037769780580E-01
H85 -4.732013463173E-01 -3.787873733917E-01 -1.367548800190E-01
H86  4.732013463173E-01  1.212126266083E-01 -3.632451199810E-01
H87  4.732013463173E-01  3.787873733917E-01  1.367548800190E-01
H88 -4.732013463173E-01 -1.212126266083E-01  3.632451199810E-01


#===END

data_OPT_STEP_45

_symmetry_space_group_name_H-M 'P 1'
_cell_length_a     18.04651290
_cell_length_b      7.62979229
_cell_length_c      6.39843778
_cell_angle_alpha   90.000000
_cell_angle_beta   91.168784
_cell_angle_gamma   90.000000

loop_
_atom_site_label
_atom_site_fract_x
_atom_site_fract_y
_atom_site_fract_z
C1  1.588448947534E-01 -3.803440184384E-01  4.832880214940E-01
C2 -1.588448947534E-01  1.196559815616E-01  1.671197850598E-02
C3 -1.588448947534E-01  3.803440184384E-01 -4.832880214940E-01
C4  1.588448947534E-01 -1.196559815616E-01 -1.671197850598E-02
H5  1.753497392691E-01 -2.810392976476E-01 -3.976259975141E-01
H6 -1.753497392691E-01  2.189607023524E-01 -1.023740024859E-01
H7 -1.753497392691E-01  2.810392976476E-01  3.976259975141E-01
H8  1.753497392691E-01 -2.189607023524E-01  1.023740024859E-01
C9  8.483136304609E-02 -3.841096620538E-01  4.106826150223E-01
C10 -8.483136304609E-02  1.158903379462E-01  8.931738497768E-02
C11 -8.483136304609E-02  3.841096620538E-01 -4.106826150223E-01
C12  8.483136304609E-02 -1.158903379462E-01 -8.931738497768E-02
H13  4.432005828082E-02 -2.912705723266E-01  4.776073938911E-01
H14 -4.432005828082E-02  2.087294276734E-01  2.239260610886E-02
H15 -4.432005828082E-02  2.912705723266E-01 -4.776073938911E-01
H16  4.432005828082E-02 -2.087294276734E-01 -2.239260610886E-02
C17  6.228503912003E-02  4.963081344909E-01  2.542465257523E-01
C18 -6.228503912003E-02 -3.691865509126E-03  2.457534742477E-01
C19 -6.228503912003E-02 -4.963081344909E-01 -2.542465257523E-01
C20  6.228503912003E-02  3.691865509126E-03 -2.457534742477E-01
H21  3.410706960707E-03  4.933944092643E-01  1.991816599084E-01
H22 -3.410706960707E-03 -6.605590735669E-03  3.008183400916E-01
H23 -3.410706960707E-03 -4.933944092643E-01 -1.991816599084E-01
H24  3.410706960707E-03  6.605590735669E-03 -3.008183400916E-01
C25  1.147834736759E-01  3.804836668428E-01  1.705006124548E-01
C26 -1.147834736759E-01 -1.195163331572E-01  3.294993875452E-01
C27 -1.147834736759E-01 -3.804836668428E-01 -1.705006124548E-01
C28  1.147834736759E-01  1.195163331572E-01 -3.294993875452E-01
H29  9.816494305781E-02  2.847421846651E-01  4.728402968420E-02
H30 -9.816494305781E-02 -2.152578153349E-01  4.527159703158E-01
H31 -9.816494305781E-02 -2.847421846651E-01 -4.728402968420E-02
H32  9.816494305781E-02  2.152578153349E-01 -4.527159703158E-01
C33  1.886703064380E-01  3.825365744579E-01  2.452128922208E-01
C34 -1.886703064380E-01 -1.174634255421E-01  2.547871077792E-01
C35 -1.886703064380E-01 -3.825365744579E-01 -2.452128922208E-01
C36  1.886703064380E-01  1.174634255421E-01 -2.547871077792E-01
H37  2.283653968622E-01  2.854070039625E-01  1.828688197997E-01
H38 -2.283653968622E-01 -2.145929960375E-01  3.171311802003E-01
H39 -2.283653968622E-01 -2.854070039625E-01 -1.828688197997E-01
H40  2.283653968622E-01  2.145929960375E-01 -3.171311802003E-01
C41  2.120490482850E-01 -4.979458623221E-01  4.028339097048E-01
C42 -2.120490482850E-01  2.054137677861E-03  9.716609029517E-02
C43 -2.120490482850E-01  4.979458623221E-01 -4.028339097048E-01
C44  2.120490482850E-01 -2.054137677861E-03 -9.716609029517E-02
C45  2.907710575573E-01 -4.933324674408E-01  4.820619496829E-01
C46 -2.907710575573E-01  6.667532559183E-03  1.793805031709E-02
C47 -2.907710575573E-01  4.933324674408E-01 -4.820619496829E-01
C48  2.907710575573E-01 -6.667532559183E-03 -1.793805031709E-02
C49  3.071990087880E-01 -4.342865114695E-01 -3.066267161680E-01
C50 -3.071990087880E-01  6.571348853054E-02 -1.933732838320E-01
C51 -3.071990087880E-01  4.342865114695E-01  3.066267161680E-01
C52  3.071990087880E-01 -6.571348853054E-02  1.933732838320E-01
H53  2.609155867609E-01 -4.053340336629E-01 -1.998879142869E-01
H54 -2.609155867609E-01  9.466596633705E-02 -3.001120857131E-01
H55 -2.609155867609E-01  4.053340336629E-01  1.998879142869E-01
H56  2.609155867609E-01 -9.466596633705E-02  3.001120857131E-01
C57  3.791566214195E-01 -4.152792287040E-01 -2.338843737655E-01
C58 -3.791566214195E-01  8.472077129600E-02 -2.661156262345E-01
C59 -3.791566214195E-01  4.152792287040E-01  2.338843737655E-01
C60  3.791566214195E-01 -8.472077129600E-02  2.661156262345E-01
H61  3.903985893816E-01 -3.670308963623E-01 -7.221121017168E-02
H62 -3.903985893816E-01  1.329691036377E-01 -4.277887898283E-01
H63 -3.903985893816E-01  3.670308963623E-01  7.221121017168E-02
H64  3.903985893816E-01 -1.329691036377E-01  4.277887898283E-01
C65  4.409166036616E-01 -4.563955528469E-01 -3.648279443202E-01
C66 -4.409166036616E-01  4.360444715305E-02 -1.351720556798E-01
C67 -4.409166036616E-01  4.563955528469E-01  3.648279443202E-01
C68  4.409166036616E-01 -4.360444715305E-02  1.351720556798E-01
C69  4.252370954702E-01  4.759244760008E-01  4.266872444158E-01
C70 -4.252370954702E-01 -2.407552399917E-02  7.331275558425E-02
C71 -4.252370954702E-01 -4.759244760008E-01 -4.266872444158E-01
C72  4.252370954702E-01  2.407552399917E-02 -7.331275558425E-02
C73  3.492764781528E-01  4.601037579442E-01  3.557049348223E-01
C74 -3.492764781528E-01 -3.989624205578E-02  1.442950651777E-01
C75 -3.492764781528E-01 -4.601037579442E-01 -3.557049348223E-01
C76  3.492764781528E-01  3.989624205578E-02 -1.442950651777E-01
H77  3.388656293120E-01  4.157961861215E-01  1.919096959142E-01
H78 -3.388656293120E-01 -8.420381387847E-02  3.080903040858E-01
H79 -3.388656293120E-01 -4.157961861215E-01 -1.919096959142E-01
H80  3.388656293120E-01  8.420381387847E-02 -3.080903040858E-01
C81 -4.849251637605E-01 -4.328362518070E-01 -2.963542178069E-01
C82  4.849251637605E-01  6.716374819299E-02 -2.036457821931E-01
C83  4.849251637605E-01  4.328362518070E-01  2.963542178069E-01
C84 -4.849251637605E-01 -6.716374819299E-02  2.036457821931E-01
H85 -4.733321863275E-01 -3.789154177065E-01 -1.370253698229E-01
H86  4.733321863275E-01  1.210845822935E-01 -3.629746301771E-01
H87  4.733321863275E-01  3.789154177065E-01  1.370253698229E-01
H88 -4.733321863275E-01 -1.210845822935E-01  3.629746301771E-01


#===END

data_OPT_STEP_46

_symmetry_space_group_name_H-M 'P 1'
_cell_length_a     18.05018918
_cell_length_b      7.62561005
_cell_length_c      6.39983185
_cell_angle_alpha   90.000000
_cell_angle_beta   91.149710
_cell_angle_gamma   90.000000

loop_
_atom_site_label
_atom_site_fract_x
_atom_site_fract_y
_atom_site_fract_z
C1  1.588943309262E-01 -3.802807932349E-01  4.830505457765E-01
C2 -1.588943309262E-01  1.197192067651E-01  1.694945422354E-02
C3 -1.588943309262E-01  3.802807932349E-01 -4.830505457765E-01
C4  1.588943309262E-01 -1.197192067651E-01 -1.694945422354E-02
H5  1.753521315946E-01 -2.809747174764E-01 -3.978329565837E-01
H6 -1.753521315946E-01  2.190252825236E-01 -1.021670434163E-01
H7 -1.753521315946E-01  2.809747174764E-01  3.978329565837E-01
H8  1.753521315946E-01 -2.190252825236E-01  1.021670434163E-01
C9  8.489372714701E-02 -3.841241083521E-01  4.105064800818E-01
C10 -8.489372714701E-02  1.158758916479E-01  8.949351991820E-02
C11 -8.489372714701E-02  3.841241083521E-01 -4.105064800818E-01
C12  8.489372714701E-02 -1.158758916479E-01 -8.949351991820E-02
H13  4.433395712249E-02 -2.914123066255E-01  4.776021632890E-01
H14 -4.433395712249E-02  2.085876933745E-01  2.239783671104E-02
H15 -4.433395712249E-02  2.914123066255E-01 -4.776021632890E-01
H16  4.433395712249E-02 -2.085876933745E-01 -2.239783671104E-02
C17  6.237520776472E-02  4.962013606853E-01  2.541560526346E-01
C18 -6.237520776472E-02 -3.798639314699E-03  2.458439473654E-01
C19 -6.237520776472E-02 -4.962013606853E-01 -2.541560526346E-01
C20  6.237520776472E-02  3.798639314699E-03 -2.458439473654E-01
H21  3.510628902122E-03  4.931679184963E-01  1.991902484196E-01
H22 -3.510628902122E-03 -6.832081503656E-03  3.008097515804E-01
H23 -3.510628902122E-03 -4.931679184963E-01 -1.991902484196E-01
H24  3.510628902122E-03  6.832081503656E-03 -3.008097515804E-01
C25  1.148897570037E-01  3.803604555721E-01  1.703948354067E-01
C26 -1.148897570037E-01 -1.196395444279E-01  3.296051645933E-01
C27 -1.148897570037E-01 -3.803604555721E-01 -1.703948354067E-01
C28  1.148897570037E-01  1.196395444279E-01 -3.296051645933E-01
H29  9.829563594633E-02  2.845071452360E-01  4.730315342970E-02
H30 -9.829563594633E-02 -2.154928547640E-01  4.526968465703E-01
H31 -9.829563594633E-02 -2.845071452360E-01 -4.730315342970E-02
H32  9.829563594633E-02  2.154928547640E-01 -4.526968465703E-01
C33  1.887593710635E-01  3.824891688886E-01  2.450453109922E-01
C34 -1.887593710635E-01 -1.175108311114E-01  2.549546890078E-01
C35 -1.887593710635E-01 -3.824891688886E-01 -2.450453109922E-01
C36  1.887593710635E-01  1.175108311114E-01 -2.549546890078E-01
H37  2.284748793281E-01  2.853244924605E-01  1.827076588441E-01
H38 -2.284748793281E-01 -2.146755075395E-01  3.172923411559E-01
H39 -2.284748793281E-01 -2.853244924605E-01 -1.827076588441E-01
H40  2.284748793281E-01  2.146755075395E-01 -3.172923411559E-01
C41  2.121130647160E-01 -4.978872583592E-01  4.025891221991E-01
C42 -2.121130647160E-01  2.112741640824E-03  9.741087780086E-02
C43 -2.121130647160E-01  4.978872583592E-01 -4.025891221991E-01
C44  2.121130647160E-01 -2.112741640824E-03 -9.741087780086E-02
C45  2.908073170123E-01 -4.933148345183E-01  4.818604145991E-01
C46 -2.908073170123E-01  6.685165481682E-03  1.813958540093E-02
C47 -2.908073170123E-01  4.933148345183E-01 -4.818604145991E-01
C48  2.908073170123E-01 -6.685165481683E-03 -1.813958540093E-02
C49  3.071891920400E-01 -4.342663051412E-01 -3.068504265519E-01
C50 -3.071891920400E-01  6.573369485882E-02 -1.931495734481E-01
C51 -3.071891920400E-01  4.342663051412E-01  3.068504265519E-01
C52  3.071891920400E-01 -6.573369485882E-02  1.931495734481E-01
H53  2.608759447149E-01 -4.052382664440E-01 -2.002119633527E-01
H54 -2.608759447149E-01  9.476173355601E-02 -2.997880366473E-01
H55 -2.608759447149E-01  4.052382664440E-01  2.002119633527E-01
H56  2.608759447149E-01 -9.476173355601E-02  2.997880366473E-01
C57  3.791182854632E-01 -4.152478212959E-01 -2.340621437749E-01
C58 -3.791182854632E-01  8.475217870409E-02 -2.659378562251E-01
C59 -3.791182854632E-01  4.152478212959E-01  2.340621437749E-01
C60  3.791182854632E-01 -8.475217870409E-02  2.659378562251E-01
H61  3.903086569178E-01 -3.670126856943E-01 -7.241466969198E-02
H62 -3.903086569178E-01  1.329873143057E-01 -4.275853303080E-01
H63 -3.903086569178E-01  3.670126856943E-01  7.241466969198E-02
H64  3.903086569178E-01 -1.329873143057E-01  4.275853303080E-01
C65  4.408976530548E-01 -4.564258292278E-01 -3.649006598845E-01
C66 -4.408976530548E-01  4.357417077224E-02 -1.350993401155E-01
C67 -4.408976530548E-01  4.564258292278E-01  3.649006598845E-01
C68  4.408976530548E-01 -4.357417077224E-02  1.350993401155E-01
C69  4.252657162083E-01  4.758670528838E-01  4.266437404422E-01
C70 -4.252657162083E-01 -2.413294711623E-02  7.335625955779E-02
C71 -4.252657162083E-01 -4.758670528838E-01 -4.266437404422E-01
C72  4.252657162083E-01  2.413294711623E-02 -7.335625955779E-02
C73  3.493313115314E-01  4.600501255546E-01  3.556027302134E-01
C74 -3.493313115314E-01 -3.994987444541E-02  1.443972697866E-01
C75 -3.493313115314E-01 -4.600501255546E-01 -3.556027302134E-01
C76  3.493313115314E-01  3.994987444541E-02 -1.443972697866E-01
H77  3.389761448086E-01  4.156973075071E-01  1.918259618162E-01
H78 -3.389761448086E-01 -8.430269249294E-02  3.081740381838E-01
H79 -3.389761448086E-01 -4.156973075071E-01 -1.918259618162E-01
H80  3.389761448086E-01  8.430269249293E-02 -3.081740381838E-01
C81 -4.849714072440E-01 -4.328224781680E-01 -2.963722381015E-01
C82  4.849714072440E-01  6.717752183204E-02 -2.036277618985E-01
C83  4.849714072440E-01  4.328224781680E-01  2.963722381015E-01
C84 -4.849714072440E-01 -6.717752183204E-02  2.036277618985E-01
H85 -4.734302868337E-01 -3.790116329680E-01 -1.370296614336E-01
H86  4.734302868337E-01  1.209883670320E-01 -3.629703385664E-01
H87  4.734302868337E-01  3.790116329680E-01  1.370296614336E-01
H88 -4.734302868337E-01 -1.209883670320E-01  3.629703385664E-01


#===END

data_OPT_STEP_47

_symmetry_space_group_name_H-M 'P 1'
_cell_length_a     18.05353494
_cell_length_b      7.62382446
_cell_length_c      6.40093717
_cell_angle_alpha   90.000000
_cell_angle_beta   91.155550
_cell_angle_gamma   90.000000

loop_
_atom_site_label
_atom_site_fract_x
_atom_site_fract_y
_atom_site_fract_z
C1  1.589351029461E-01 -3.803157501949E-01  4.830396028316E-01
C2 -1.589351029461E-01  1.196842498051E-01  1.696039716841E-02
C3 -1.589351029461E-01  3.803157501949E-01 -4.830396028316E-01
C4  1.589351029461E-01 -1.196842498051E-01 -1.696039716841E-02
H5  1.753638228743E-01 -2.810486325614E-01 -3.977862962298E-01
H6 -1.753638228743E-01  2.189513674386E-01 -1.022137037702E-01
H7 -1.753638228743E-01  2.810486325614E-01  3.977862962298E-01
H8  1.753638228743E-01 -2.189513674386E-01  1.022137037702E-01
C9  8.494204157172E-02 -3.842287281604E-01  4.105201662903E-01
C10 -8.494204157172E-02  1.157712718396E-01  8.947983370971E-02
C11 -8.494204157172E-02  3.842287281604E-01 -4.105201662903E-01
C12  8.494204157172E-02 -1.157712718396E-01 -8.947983370971E-02
H13  4.435751444118E-02 -2.916405113276E-01  4.777564983177E-01
H14 -4.435751444118E-02  2.083594886724E-01  2.224350168230E-02
H15 -4.435751444118E-02  2.916405113276E-01 -4.777564983177E-01
H16  4.435751444118E-02 -2.083594886724E-01 -2.224350168230E-02
C17  6.243850185262E-02  4.960725779346E-01  2.541829290358E-01
C18 -6.243850185262E-02 -3.927422065420E-03  2.458170709642E-01
C19 -6.243850185262E-02 -4.960725779346E-01 -2.541829290358E-01
C20  6.243850185262E-02  3.927422065420E-03 -2.458170709642E-01
H21  3.580993083317E-03  4.928947916975E-01  1.992687824585E-01
H22 -3.580993083317E-03 -7.105208302459E-03  3.007312175415E-01
H23 -3.580993083317E-03 -4.928947916975E-01 -1.992687824585E-01
H24  3.580993083317E-03  7.105208302459E-03 -3.007312175415E-01
C25  1.149583518234E-01  3.802810532190E-01  1.703801144999E-01
C26 -1.149583518234E-01 -1.197189467810E-01  3.296198855001E-01
C27 -1.149583518234E-01 -3.802810532190E-01 -1.703801144999E-01
C28  1.149583518234E-01  1.197189467810E-01 -3.296198855001E-01
H29  9.837434703579E-02  2.844043848522E-01  4.734516894267E-02
H30 -9.837434703579E-02 -2.155956151478E-01  4.526548310573E-01
H31 -9.837434703579E-02 -2.844043848522E-01 -4.734516894267E-02
H32  9.837434703579E-02  2.155956151478E-01 -4.526548310573E-01
C33  1.888172914930E-01  3.824859400136E-01  2.449925297817E-01
C34 -1.888172914930E-01 -1.175140599864E-01  2.550074702183E-01
C35 -1.888172914930E-01 -3.824859400136E-01 -2.449925297817E-01
C36  1.888172914930E-01  1.175140599864E-01 -2.550074702183E-01
H37  2.285522089144E-01  2.853667290723E-01  1.825866806436E-01
H38 -2.285522089144E-01 -2.146332709277E-01  3.174133193564E-01
H39 -2.285522089144E-01 -2.853667290723E-01 -1.825866806436E-01
H40  2.285522089144E-01  2.146332709277E-01 -3.174133193564E-01
C41  2.121586100091E-01 -4.978754048397E-01  4.025443504386E-01
C42 -2.121586100091E-01  2.124595160287E-03  9.745564956141E-02
C43 -2.121586100091E-01  4.978754048397E-01 -4.025443504386E-01
C44  2.121586100091E-01 -2.124595160287E-03 -9.745564956141E-02
C45  2.908431945783E-01 -4.932850148317E-01  4.817977992499E-01
C46 -2.908431945783E-01  6.714985168314E-03  1.820220075005E-02
C47 -2.908431945783E-01  4.932850148317E-01 -4.817977992499E-01
C48  2.908431945783E-01 -6.714985168314E-03 -1.820220075005E-02
C49  3.072258999336E-01 -4.342740694588E-01 -3.069246812366E-01
C50 -3.072258999336E-01  6.572593054122E-02 -1.930753187634E-01
C51 -3.072258999336E-01  4.342740694588E-01  3.069246812366E-01
C52  3.072258999336E-01 -6.572593054122E-02  1.930753187634E-01
H53  2.609118247569E-01 -4.052238496617E-01 -2.003321991642E-01
H54 -2.609118247569E-01  9.477615033827E-02 -2.996678008358E-01
H55 -2.609118247569E-01  4.052238496617E-01  2.003321991642E-01
H56  2.609118247569E-01 -9.477615033827E-02  2.996678008358E-01
C57  3.791421145304E-01 -4.152565479396E-01 -2.341226270431E-01
C58 -3.791421145304E-01  8.474345206040E-02 -2.658773729569E-01
C59 -3.791421145304E-01  4.152565479396E-01  2.341226270431E-01
C60  3.791421145304E-01 -8.474345206040E-02  2.658773729569E-01
H61  3.903192162317E-01 -3.670785241101E-01 -7.247133700678E-02
H62 -3.903192162317E-01  1.329214758899E-01 -4.275286629932E-01
H63 -3.903192162317E-01  3.670785241101E-01  7.247133700678E-02
H64  3.903192162317E-01 -1.329214758899E-01  4.275286629932E-01
C65  4.409097420602E-01 -4.564467662902E-01 -3.649234853676E-01
C66 -4.409097420602E-01  4.355323370977E-02 -1.350765146324E-01
C67 -4.409097420602E-01  4.564467662902E-01  3.649234853676E-01
C68  4.409097420602E-01 -4.355323370977E-02  1.350765146324E-01
C69  4.252784220252E-01  4.758599907365E-01  4.266390324169E-01
C70 -4.252784220252E-01 -2.414000926348E-02  7.336096758312E-02
C71 -4.252784220252E-01 -4.758599907365E-01 -4.266390324169E-01
C72  4.252784220252E-01  2.414000926348E-02 -7.336096758312E-02
C73  3.493562503091E-01  4.600618051868E-01  3.555805233651E-01
C74 -3.493562503091E-01 -3.993819481319E-02  1.444194766349E-01
C75 -3.493562503091E-01 -4.600618051868E-01 -3.555805233651E-01
C76  3.493562503091E-01  3.993819481319E-02 -1.444194766349E-01
H77  3.390173680302E-01  4.157181680053E-01  1.918036676971E-01
H78 -3.390173680302E-01 -8.428183199472E-02  3.081963323029E-01
H79 -3.390173680302E-01 -4.157181680053E-01 -1.918036676971E-01
H80  3.390173680302E-01  8.428183199472E-02 -3.081963323029E-01
C81 -4.849723622529E-01 -4.328375952331E-01 -2.963842786014E-01
C82  4.849723622529E-01  6.716240476691E-02 -2.036157213986E-01
C83  4.849723622529E-01  4.328375952331E-01  2.963842786014E-01
C84 -4.849723622529E-01 -6.716240476691E-02  2.036157213986E-01
H85 -4.734427755461E-01 -3.790921287107E-01 -1.370410374701E-01
H86  4.734427755461E-01  1.209078712893E-01 -3.629589625299E-01
H87  4.734427755461E-01  3.790921287107E-01  1.370410374701E-01
H88 -4.734427755461E-01 -1.209078712893E-01  3.629589625299E-01


#===END

data_OPT_STEP_48

_symmetry_space_group_name_H-M 'P 1'
_cell_length_a     18.05516542
_cell_length_b      7.62137673
_cell_length_c      6.40234597
_cell_angle_alpha   90.000000
_cell_angle_beta   91.144439
_cell_angle_gamma   90.000000

loop_
_atom_site_label
_atom_site_fract_x
_atom_site_fract_y
_atom_site_fract_z
C1  1.589500403024E-01 -3.803198088693E-01  4.829857924362E-01
C2 -1.589500403024E-01  1.196801911307E-01  1.701420756377E-02
C3 -1.589500403024E-01  3.803198088693E-01 -4.829857924362E-01
C4  1.589500403024E-01 -1.196801911307E-01 -1.701420756377E-02
H5  1.753512137782E-01 -2.810661033755E-01 -3.978046251219E-01
H6 -1.753512137782E-01  2.189338966245E-01 -1.021953748781E-01
H7 -1.753512137782E-01  2.810661033755E-01  3.978046251219E-01
H8  1.753512137782E-01 -2.189338966245E-01  1.021953748781E-01
C9  8.496353543482E-02 -3.843027537505E-01  4.105256968605E-01
C10 -8.496353543482E-02  1.156972462495E-01  8.947430313949E-02
C11 -8.496353543482E-02  3.843027537505E-01 -4.105256968605E-01
C12  8.496353543482E-02 -1.156972462495E-01 -8.947430313949E-02
H13  4.436034528241E-02 -2.917973522350E-01  4.778914615464E-01
H14 -4.436034528241E-02  2.082026477650E-01  2.210853845361E-02
H15 -4.436034528241E-02  2.917973522350E-01 -4.778914615464E-01
H16  4.436034528241E-02 -2.082026477650E-01 -2.210853845361E-02
C17  6.248762464879E-02  4.959869650505E-01  2.541737006569E-01
C18 -6.248762464879E-02 -4.013034949486E-03  2.458262993431E-01
C19 -6.248762464879E-02 -4.959869650505E-01 -2.541737006569E-01
C20  6.248762464879E-02  4.013034949485E-03 -2.458262993431E-01
H21  3.635458681139E-03  4.926891935105E-01  1.993069211862E-01
H22 -3.635458681139E-03 -7.310806489546E-03  3.006930788138E-01
H23 -3.635458681139E-03 -4.926891935105E-01 -1.993069211862E-01
H24  3.635458681139E-03  7.310806489546E-03 -3.006930788138E-01
C25  1.150313089558E-01  3.802765717045E-01  1.702763289443E-01
C26 -1.150313089558E-01 -1.197234282955E-01  3.297236710557E-01
C27 -1.150313089558E-01 -3.802765717045E-01 -1.702763289443E-01
C28  1.150313089558E-01  1.197234282955E-01 -3.297236710557E-01
H29  9.846239584316E-02  2.843854126776E-01  4.727154579980E-02
H30 -9.846239584316E-02 -2.156145873224E-01  4.527284542002E-01
H31 -9.846239584316E-02 -2.843854126776E-01 -4.727154579980E-02
H32  9.846239584316E-02  2.156145873224E-01 -4.527284542002E-01
C33  1.888811944802E-01  3.825490756775E-01  2.448364486423E-01
C34 -1.888811944802E-01 -1.174509243225E-01  2.551635513577E-01
C35 -1.888811944802E-01 -3.825490756775E-01 -2.448364486423E-01
C36  1.888811944802E-01  1.174509243225E-01 -2.551635513577E-01
H37  2.286349195059E-01  2.854727391296E-01  1.823741343857E-01
H38 -2.286349195059E-01 -2.145272608704E-01  3.176258656143E-01
H39 -2.286349195059E-01 -2.854727391296E-01 -1.823741343857E-01
H40  2.286349195059E-01  2.145272608704E-01 -3.176258656143E-01
C41  2.121939041971E-01 -4.978175829418E-01  4.024157718427E-01
C42 -2.121939041971E-01  2.182417058194E-03  9.758422815733E-02
C43 -2.121939041971E-01  4.978175829418E-01 -4.024157718427E-01
C44  2.121939041971E-01 -2.182417058194E-03 -9.758422815733E-02
C45  2.908641128255E-01 -4.932095613811E-01  4.816612179331E-01
C46 -2.908641128255E-01  6.790438618924E-03  1.833878206693E-02
C47 -2.908641128255E-01  4.932095613811E-01 -4.816612179331E-01
C48  2.908641128255E-01 -6.790438618924E-03 -1.833878206693E-02
C49  3.072199662439E-01 -4.342595284674E-01 -3.070698902534E-01
C50 -3.072199662439E-01  6.574047153260E-02 -1.929301097466E-01
C51 -3.072199662439E-01  4.342595284674E-01  3.070698902534E-01
C52  3.072199662439E-01 -6.574047153260E-02  1.929301097466E-01
H53  2.608984766537E-01 -4.052136553115E-01 -2.005169889406E-01
H54 -2.608984766537E-01  9.478634468852E-02 -2.994830110594E-01
H55 -2.608984766537E-01  4.052136553115E-01  2.005169889406E-01
H56  2.608984766537E-01 -9.478634468852E-02  2.994830110594E-01
C57  3.791195141618E-01 -4.152789238237E-01 -2.342307645503E-01
C58 -3.791195141618E-01  8.472107617629E-02 -2.657692354497E-01
C59 -3.791195141618E-01  4.152789238237E-01  2.342307645503E-01
C60  3.791195141618E-01 -8.472107617629E-02  2.657692354497E-01
H61  3.902753748437E-01 -3.671281366973E-01 -7.258351934211E-02
H62 -3.902753748437E-01  1.328718633027E-01 -4.274164806579E-01
H63 -3.902753748437E-01  3.671281366973E-01  7.258351934211E-02
H64  3.902753748437E-01 -1.328718633027E-01  4.274164806579E-01
C65  4.408986344586E-01 -4.564469263481E-01 -3.649827862892E-01
C66 -4.408986344586E-01  4.355307365187E-02 -1.350172137108E-01
C67 -4.408986344586E-01  4.564469263481E-01  3.649827862892E-01
C68  4.408986344586E-01 -4.355307365187E-02  1.350172137108E-01
C69  4.252937628555E-01  4.759128327364E-01  4.265870635913E-01
C70 -4.252937628555E-01 -2.408716726365E-02  7.341293640874E-02
C71 -4.252937628555E-01 -4.759128327364E-01 -4.265870635913E-01
C72  4.252937628555E-01  2.408716726365E-02 -7.341293640874E-02
C73  3.493873071241E-01  4.601475693152E-01  3.554909935077E-01
C74 -3.493873071241E-01 -3.985243068482E-02  1.445090064923E-01
C75 -3.493873071241E-01 -4.601475693152E-01 -3.554909935077E-01
C76  3.493873071241E-01  3.985243068481E-02 -1.445090064923E-01
H77  3.390699683744E-01  4.158188809424E-01  1.917268925273E-01
H78 -3.390699683744E-01 -8.418111905760E-02  3.082731074727E-01
H79 -3.390699683744E-01 -4.158188809424E-01 -1.917268925273E-01
H80  3.390699683744E-01  8.418111905759E-02 -3.082731074727E-01
C81 -4.849983235069E-01 -4.328795354401E-01 -2.963928293423E-01
C82  4.849983235069E-01  6.712046455992E-02 -2.036071706577E-01
C83  4.849983235069E-01  4.328795354401E-01  2.963928293423E-01
C84 -4.849983235069E-01 -6.712046455992E-02  2.036071706577E-01
H85 -4.734885399419E-01 -3.791697196308E-01 -1.370585686049E-01
H86  4.734885399419E-01  1.208302803692E-01 -3.629414313951E-01
H87  4.734885399419E-01  3.791697196308E-01  1.370585686049E-01
H88 -4.734885399419E-01 -1.208302803692E-01  3.629414313951E-01


#===END

data_OPT_STEP_49

_symmetry_space_group_name_H-M 'P 1'
_cell_length_a     18.05685866
_cell_length_b      7.62117491
_cell_length_c      6.40277586
_cell_angle_alpha   90.000000
_cell_angle_beta   91.150899
_cell_angle_gamma   90.000000

loop_
_atom_site_label
_atom_site_fract_x
_atom_site_fract_y
_atom_site_fract_z
C1  1.589708994372E-01 -3.803482776232E-01  4.830521346574E-01
C2 -1.589708994372E-01  1.196517223768E-01  1.694786534264E-02
C3 -1.589708994372E-01  3.803482776232E-01 -4.830521346574E-01
C4  1.589708994372E-01 -1.196517223768E-01 -1.694786534264E-02
H5  1.753719889659E-01 -2.810938889923E-01 -3.977400622443E-01
H6 -1.753719889659E-01  2.189061110077E-01 -1.022599377557E-01
H7 -1.753719889659E-01  2.810938889923E-01  3.977400622443E-01
H8  1.753719889659E-01 -2.189061110077E-01  1.022599377557E-01
C9  8.498733193377E-02 -3.843553179027E-01  4.106127595680E-01
C10 -8.498733193377E-02  1.156446820973E-01  8.938724043202E-02
C11 -8.498733193377E-02  3.843553179027E-01 -4.106127595680E-01
C12  8.498733193377E-02 -1.156446820973E-01 -8.938724043202E-02
H13  4.439376006145E-02 -2.918606278856E-01  4.779986156823E-01
H14 -4.439376006145E-02  2.081393721144E-01  2.200138431765E-02
H15 -4.439376006145E-02  2.918606278856E-01 -4.779986156823E-01
H16  4.439376006145E-02 -2.081393721144E-01 -2.200138431765E-02
C17  6.251695463599E-02  4.959361007951E-01  2.542575849009E-01
C18 -6.251695463599E-02 -4.063899204930E-03  2.457424150991E-01
C19 -6.251695463599E-02 -4.959361007951E-01 -2.542575849009E-01
C20  6.251695463599E-02  4.063899204930E-03 -2.457424150991E-01
H21  3.670817321844E-03  4.925601339918E-01  1.993933793298E-01
H22 -3.670817321844E-03 -7.439866008177E-03  3.006066206702E-01
H23 -3.670817321844E-03 -4.925601339918E-01 -1.993933793298E-01
H24  3.670817321844E-03  7.439866008176E-03 -3.006066206702E-01
C25  1.150616999602E-01  3.802752335791E-01  1.703257935838E-01
C26 -1.150616999602E-01 -1.197247664209E-01  3.296742064162E-01
C27 -1.150616999602E-01 -3.802752335791E-01 -1.703257935838E-01
C28  1.150616999602E-01  1.197247664209E-01 -3.296742064162E-01
H29  9.849028616341E-02  2.844032216920E-01  4.731668815266E-02
H30 -9.849028616341E-02 -2.155967783080E-01  4.526833118473E-01
H31 -9.849028616341E-02 -2.844032216920E-01 -4.731668815266E-02
H32  9.849028616341E-02  2.155967783080E-01 -4.526833118473E-01
C33  1.889083935243E-01  3.825782109013E-01  2.448568942230E-01
C34 -1.889083935243E-01 -1.174217890987E-01  2.551431057770E-01
C35 -1.889083935243E-01 -3.825782109013E-01 -2.448568942230E-01
C36  1.889083935243E-01  1.174217890987E-01 -2.551431057770E-01
H37  2.286651200765E-01  2.855459690667E-01  1.823523225709E-01
H38 -2.286651200765E-01 -2.144540309333E-01  3.176476774291E-01
H39 -2.286651200765E-01 -2.855459690667E-01 -1.823523225709E-01
H40  2.286651200765E-01  2.144540309333E-01 -3.176476774291E-01
C41  2.122154067111E-01 -4.978102168933E-01  4.024571473773E-01
C42 -2.122154067111E-01  2.189783106665E-03  9.754285262274E-02
C43 -2.122154067111E-01  4.978102168933E-01 -4.024571473773E-01
C44  2.122154067111E-01 -2.189783106666E-03 -9.754285262274E-02
C45  2.908830618401E-01 -4.931826065811E-01  4.816833274062E-01
C46 -2.908830618401E-01  6.817393418864E-03  1.831667259384E-02
C47 -2.908830618401E-01  4.931826065811E-01 -4.816833274062E-01
C48  2.908830618401E-01 -6.817393418865E-03 -1.831667259384E-02
C49  3.072478313660E-01 -4.342709071022E-01 -3.070472901684E-01
C50 -3.072478313660E-01  6.572909289780E-02 -1.929527098316E-01
C51 -3.072478313660E-01  4.342709071022E-01  3.070472901684E-01
C52  3.072478313660E-01 -6.572909289780E-02  1.929527098316E-01
H53  2.609397518824E-01 -4.052576562117E-01 -2.004791198322E-01
H54 -2.609397518824E-01  9.474234378835E-02 -2.995208801678E-01
H55 -2.609397518824E-01  4.052576562117E-01  2.004791198322E-01
H56  2.609397518824E-01 -9.474234378835E-02  2.995208801678E-01
C57  3.791440998156E-01 -4.153111320423E-01 -2.342135647926E-01
C58 -3.791440998156E-01  8.468886795765E-02 -2.657864352074E-01
C59 -3.791440998156E-01  4.153111320423E-01  2.342135647926E-01
C60  3.791440998156E-01 -8.468886795765E-02  2.657864352074E-01
H61  3.903071697170E-01 -3.671981766962E-01 -7.255528683793E-02
H62 -3.903071697170E-01  1.328018233038E-01 -4.274447131621E-01
H63 -3.903071697170E-01  3.671981766962E-01  7.255528683793E-02
H64  3.903071697170E-01 -1.328018233038E-01  4.274447131621E-01
C65  4.409107272934E-01 -4.564513877610E-01 -3.649757046675E-01
C66 -4.409107272934E-01  4.354861223896E-02 -1.350242953325E-01
C67 -4.409107272934E-01  4.564513877610E-01  3.649757046675E-01
C68  4.409107272934E-01 -4.354861223897E-02  1.350242953325E-01
C69  4.252977022600E-01  4.759532476713E-01  4.265882596107E-01
C70 -4.252977022600E-01 -2.404675232867E-02  7.341174038927E-02
C71 -4.252977022600E-01 -4.759532476713E-01 -4.265882596107E-01
C72  4.252977022600E-01  2.404675232867E-02 -7.341174038927E-02
C73  3.493958848713E-01  4.602086394800E-01  3.554984331465E-01
C74 -3.493958848713E-01 -3.979136051997E-02  1.445015668535E-01
C75 -3.493958848713E-01 -4.602086394800E-01 -3.554984331465E-01
C76  3.493958848713E-01  3.979136051997E-02 -1.445015668535E-01
H77  3.390702590175E-01  4.159151700189E-01  1.917342735237E-01
H78 -3.390702590175E-01 -8.408482998111E-02  3.082657264763E-01
H79 -3.390702590175E-01 -4.159151700189E-01 -1.917342735237E-01
H80  3.390702590175E-01  8.408482998111E-02 -3.082657264763E-01
C81 -4.849906073072E-01 -4.329192673795E-01 -2.963902574869E-01
C82  4.849906073072E-01  6.708073262049E-02 -2.036097425131E-01
C83  4.849906073072E-01  4.329192673795E-01  2.963902574869E-01
C84 -4.849906073072E-01 -6.708073262049E-02  2.036097425131E-01
H85 -4.734715904974E-01 -3.792067317962E-01 -1.370607279046E-01
H86  4.734715904974E-01  1.207932682038E-01 -3.629392720954E-01
H87  4.734715904974E-01  3.792067317962E-01  1.370607279046E-01
H88 -4.734715904974E-01 -1.207932682038E-01  3.629392720954E-01


#===END

data_OPT_STEP_50

_symmetry_space_group_name_H-M 'P 1'
_cell_length_a     18.05716939
_cell_length_b      7.62010650
_cell_length_c      6.40324935
_cell_angle_alpha   90.000000
_cell_angle_beta   91.153095
_cell_angle_gamma   90.000000

loop_
_atom_site_label
_atom_site_fract_x
_atom_site_fract_y
_atom_site_fract_z
C1  1.589747218196E-01 -3.803627509471E-01  4.830548961666E-01
C2 -1.589747218196E-01  1.196372490529E-01  1.694510383342E-02
C3 -1.589747218196E-01  3.803627509471E-01 -4.830548961666E-01
C4  1.589747218196E-01 -1.196372490529E-01 -1.694510383342E-02
H5  1.753781400475E-01 -2.811102930903E-01 -3.977163744591E-01
H6 -1.753781400475E-01  2.188897069097E-01 -1.022836255409E-01
H7 -1.753781400475E-01  2.811102930903E-01  3.977163744591E-01
H8  1.753781400475E-01 -2.188897069097E-01  1.022836255409E-01
C9  8.498969620925E-02 -3.843706084255E-01  4.106377563265E-01
C10 -8.498969620925E-02  1.156293915745E-01  8.936224367348E-02
C11 -8.498969620925E-02  3.843706084255E-01 -4.106377563265E-01
C12  8.498969620925E-02 -1.156293915745E-01 -8.936224367348E-02
H13  4.440254099921E-02 -2.918763462265E-01  4.780565134898E-01
H14 -4.440254099921E-02  2.081236537735E-01  2.194348651019E-02
H15 -4.440254099921E-02  2.918763462265E-01 -4.780565134898E-01
H16  4.440254099921E-02 -2.081236537735E-01 -2.194348651019E-02
C17  6.252062566932E-02  4.959376687961E-01  2.542506116911E-01
C18 -6.252062566932E-02 -4.062331203896E-03  2.457493883089E-01
C19 -6.252062566932E-02 -4.959376687961E-01 -2.542506116911E-01
C20  6.252062566932E-02  4.062331203896E-03 -2.457493883089E-01
H21  3.673710629739E-03  4.925405175836E-01  1.994070578986E-01
H22 -3.673710629739E-03 -7.459482416415E-03  3.005929421014E-01
H23 -3.673710629739E-03 -4.925405175836E-01 -1.994070578986E-01
H24  3.673710629739E-03  7.459482416415E-03 -3.005929421014E-01
C25  1.150689986734E-01  3.803075666414E-01  1.702602132901E-01
C26 -1.150689986734E-01 -1.196924333586E-01  3.297397867099E-01
C27 -1.150689986734E-01 -3.803075666414E-01 -1.702602132901E-01
C28  1.150689986734E-01  1.196924333586E-01 -3.297397867099E-01
H29  9.849664543116E-02  2.844534340386E-01  4.721775150965E-02
H30 -9.849664543116E-02 -2.155465659614E-01  4.527822484903E-01
H31 -9.849664543116E-02 -2.844534340386E-01 -4.721775150965E-02
H32  9.849664543116E-02  2.155465659614E-01 -4.527822484903E-01
C33  1.889172379737E-01  3.826086430784E-01  2.447704659537E-01
C34 -1.889172379737E-01 -1.173913569216E-01  2.552295340463E-01
C35 -1.889172379737E-01 -3.826086430784E-01 -2.447704659537E-01
C36  1.889172379737E-01  1.173913569216E-01 -2.552295340463E-01
H37  2.286734513251E-01  2.855961602708E-01  1.822201539415E-01
H38 -2.286734513251E-01 -2.144038397292E-01  3.177798460585E-01
H39 -2.286734513251E-01 -2.855961602708E-01 -1.822201539415E-01
H40  2.286734513251E-01  2.144038397292E-01 -3.177798460585E-01
C41  2.122218155220E-01 -4.978049439092E-01  4.024115021470E-01
C42 -2.122218155220E-01  2.195056090751E-03  9.758849785303E-02
C43 -2.122218155220E-01  4.978049439092E-01 -4.024115021470E-01
C44  2.122218155220E-01 -2.195056090751E-03 -9.758849785303E-02
C45  2.908874290394E-01 -4.931817039965E-01  4.816423557461E-01
C46 -2.908874290394E-01  6.818296003530E-03  1.835764425391E-02
C47 -2.908874290394E-01  4.931817039965E-01 -4.816423557461E-01
C48  2.908874290394E-01 -6.818296003530E-03 -1.835764425391E-02
C49  3.072489909990E-01 -4.342895890376E-01 -3.070894929055E-01
C50 -3.072489909990E-01  6.571041096240E-02 -1.929105070945E-01
C51 -3.072489909990E-01  4.342895890376E-01  3.070894929055E-01
C52  3.072489909990E-01 -6.571041096240E-02  1.929105070945E-01
H53  2.609448007067E-01 -4.052896207053E-01 -2.005254640702E-01
H54 -2.609448007067E-01  9.471037929468E-02 -2.994745359298E-01
H55 -2.609448007067E-01  4.052896207053E-01  2.005254640702E-01
H56  2.609448007067E-01 -9.471037929468E-02  2.994745359298E-01
C57  3.791430935849E-01 -4.153360418114E-01 -2.342434082749E-01
C58 -3.791430935849E-01  8.466395818865E-02 -2.657565917251E-01
C59 -3.791430935849E-01  4.153360418114E-01  2.342434082749E-01
C60  3.791430935849E-01 -8.466395818865E-02  2.657565917251E-01
H61  3.903073082073E-01 -3.672260707527E-01 -7.258789772104E-02
H62 -3.903073082073E-01  1.327739292473E-01 -4.274121022790E-01
H63 -3.903073082073E-01  3.672260707527E-01  7.258789772104E-02
H64  3.903073082073E-01 -1.327739292473E-01  4.274121022790E-01
C65  4.409102091518E-01 -4.564591975439E-01 -3.649913668992E-01
C66 -4.409102091518E-01  4.354080245610E-02 -1.350086331008E-01
C67 -4.409102091518E-01  4.564591975439E-01  3.649913668992E-01
C68  4.409102091518E-01 -4.354080245610E-02  1.350086331008E-01
C69  4.252998146397E-01  4.759647009093E-01  4.265708917321E-01
C70 -4.252998146397E-01 -2.403529909068E-02  7.342910826792E-02
C71 -4.252998146397E-01 -4.759647009093E-01 -4.265708917321E-01
C72  4.252998146397E-01  2.403529909068E-02 -7.342910826792E-02
C73  3.494005550028E-01  4.602248641925E-01  3.554685670004E-01
C74 -3.494005550028E-01 -3.977513580751E-02  1.445314329996E-01
C75 -3.494005550028E-01 -4.602248641925E-01 -3.554685670004E-01
C76  3.494005550028E-01  3.977513580751E-02 -1.445314329996E-01
H77  3.390723104389E-01  4.159484989840E-01  1.917090060943E-01
H78 -3.390723104389E-01 -8.405150101596E-02  3.082909939057E-01
H79 -3.390723104389E-01 -4.159484989840E-01 -1.917090060943E-01
H80  3.390723104389E-01  8.405150101595E-02 -3.082909939057E-01
C81 -4.849931941347E-01 -4.329356808549E-01 -2.963912691298E-01
C82  4.849931941347E-01  6.706431914506E-02 -2.036087308702E-01
C83  4.849931941347E-01  4.329356808549E-01  2.963912691298E-01
C84 -4.849931941347E-01 -6.706431914506E-02  2.036087308702E-01
H85 -4.734724181482E-01 -3.792205517958E-01 -1.370630779941E-01
H86  4.734724181482E-01  1.207794482042E-01 -3.629369220059E-01
H87  4.734724181482E-01  3.792205517958E-01  1.370630779941E-01
H88 -4.734724181482E-01 -1.207794482042E-01  3.629369220059E-01


#===END

data_OPT_STEP_51

_symmetry_space_group_name_H-M 'P 1'
_cell_length_a     18.05730712
_cell_length_b      7.62004547
_cell_length_c      6.40316706
_cell_angle_alpha   90.000000
_cell_angle_beta   91.153532
_cell_angle_gamma   90.000000

loop_
_atom_site_label
_atom_site_fract_x
_atom_site_fract_y
_atom_site_fract_z
C1  1.589776732526E-01 -3.803596590374E-01  4.830682438574E-01
C2 -1.589776732526E-01  1.196403409626E-01  1.693175614259E-02
C3 -1.589776732526E-01  3.803596590374E-01 -4.830682438574E-01
C4  1.589776732526E-01 -1.196403409626E-01 -1.693175614259E-02
H5  1.753827956355E-01 -2.811025785911E-01 -3.977061199212E-01
H6 -1.753827956355E-01  2.188974214089E-01 -1.022938800788E-01
H7 -1.753827956355E-01  2.811025785911E-01  3.977061199212E-01
H8  1.753827956355E-01 -2.188974214089E-01  1.022938800788E-01
C9  8.499291776092E-02 -3.843651194391E-01  4.106497547110E-01
C10 -8.499291776092E-02  1.156348805609E-01  8.935024528901E-02
C11 -8.499291776092E-02  3.843651194391E-01 -4.106497547110E-01
C12  8.499291776092E-02 -1.156348805609E-01 -8.935024528901E-02
H13  4.440855040786E-02 -2.918621834686E-01  4.780618546706E-01
H14 -4.440855040786E-02  2.081378165314E-01  2.193814532937E-02
H15 -4.440855040786E-02  2.918621834686E-01 -4.780618546706E-01
H16  4.440855040786E-02 -2.081378165314E-01 -2.193814532937E-02
C17  6.252259855207E-02  4.959402865023E-01  2.542647614531E-01
C18 -6.252259855207E-02 -4.059713497673E-03  2.457352385469E-01
C19 -6.252259855207E-02 -4.959402865023E-01 -2.542647614531E-01
C20  6.252259855207E-02  4.059713497673E-03 -2.457352385469E-01
H21  3.676116007315E-03  4.925434188295E-01  1.994213678579E-01
H22 -3.676116007315E-03 -7.456581170520E-03  3.005786321421E-01
H23 -3.676116007315E-03 -4.925434188295E-01 -1.994213678579E-01
H24  3.676116007315E-03  7.456581170520E-03 -3.005786321421E-01
C25  1.150698853604E-01  3.803058201350E-01  1.702785494152E-01
C26 -1.150698853604E-01 -1.196941798650E-01  3.297214505848E-01
C27 -1.150698853604E-01 -3.803058201350E-01 -1.702785494152E-01
C28  1.150698853604E-01  1.196941798650E-01 -3.297214505848E-01
H29  9.849668374809E-02  2.844490639175E-01  4.723496676891E-02
H30 -9.849668374809E-02 -2.155509360825E-01  4.527650332311E-01
H31 -9.849668374809E-02 -2.844490639175E-01 -4.723496676891E-02
H32  9.849668374809E-02  2.155509360825E-01 -4.527650332311E-01
C33  1.889180259967E-01  3.826049642376E-01  2.447898542905E-01
C34 -1.889180259967E-01 -1.173950357624E-01  2.552101457095E-01
C35 -1.889180259967E-01 -3.826049642376E-01 -2.447898542905E-01
C36  1.889180259967E-01  1.173950357624E-01 -2.552101457095E-01
H37  2.286719377459E-01  2.855882266658E-01  1.822451928400E-01
H38 -2.286719377459E-01 -2.144117733342E-01  3.177548071600E-01
H39 -2.286719377459E-01 -2.855882266658E-01 -1.822451928400E-01
H40  2.286719377459E-01  2.144117733342E-01 -3.177548071600E-01
C41  2.122234566682E-01 -4.978058094302E-01  4.024291987158E-01
C42 -2.122234566682E-01  2.194190569832E-03  9.757080128418E-02
C43 -2.122234566682E-01  4.978058094302E-01 -4.024291987158E-01
C44  2.122234566682E-01 -2.194190569832E-03 -9.757080128418E-02
C45  2.908888997411E-01 -4.931839818657E-01  4.816595376384E-01
C46 -2.908888997411E-01  6.816018134265E-03  1.834046236163E-02
C47 -2.908888997411E-01  4.931839818657E-01 -4.816595376384E-01
C48  2.908888997411E-01 -6.816018134265E-03 -1.834046236163E-02
C49  3.072525068821E-01 -4.342909249301E-01 -3.070713250941E-01
C50 -3.072525068821E-01  6.570907506992E-02 -1.929286749059E-01
C51 -3.072525068821E-01  4.342909249301E-01  3.070713250941E-01
C52  3.072525068821E-01 -6.570907506992E-02  1.929286749059E-01
H53  2.609501720092E-01 -4.052922323535E-01 -2.005017989977E-01
H54 -2.609501720092E-01  9.470776764654E-02 -2.994982010023E-01
H55 -2.609501720092E-01  4.052922323535E-01  2.005017989977E-01
H56  2.609501720092E-01 -9.470776764654E-02  2.994982010023E-01
C57  3.791470619480E-01 -4.153370587886E-01 -2.342303137840E-01
C58 -3.791470619480E-01  8.466294121140E-02 -2.657696862160E-01
C59 -3.791470619480E-01  4.153370587886E-01  2.342303137840E-01
C60  3.791470619480E-01 -8.466294121140E-02  2.657696862160E-01
H61  3.903132573774E-01 -3.672270426232E-01 -7.257391596690E-02
H62 -3.903132573774E-01  1.327729573768E-01 -4.274260840331E-01
H63 -3.903132573774E-01  3.672270426232E-01  7.257391596690E-02
H64  3.903132573774E-01 -1.327729573768E-01  4.274260840331E-01
C65  4.409121836646E-01 -4.564600692153E-01 -3.649847791746E-01
C66 -4.409121836646E-01  4.353993078475E-02 -1.350152208254E-01
C67 -4.409121836646E-01  4.564600692153E-01  3.649847791746E-01
C68  4.409121836646E-01 -4.353993078475E-02  1.350152208254E-01
C69  4.252994780966E-01  4.759632935670E-01  4.265762296529E-01
C70 -4.252994780966E-01 -2.403670643299E-02  7.342377034706E-02
C71 -4.252994780966E-01 -4.759632935670E-01 -4.265762296529E-01
C72  4.252994780966E-01  2.403670643299E-02 -7.342377034706E-02
C73  3.494001439415E-01  4.602241317750E-01  3.554789997099E-01
C74 -3.494001439415E-01 -3.977586822498E-02  1.445210002901E-01
C75 -3.494001439415E-01 -4.602241317750E-01 -3.554789997099E-01
C76  3.494001439415E-01  3.977586822498E-02 -1.445210002901E-01
H77  3.390697325149E-01  4.159496622043E-01  1.917183563659E-01
H78 -3.390697325149E-01 -8.405033779570E-02  3.082816436341E-01
H79 -3.390697325149E-01 -4.159496622043E-01 -1.917183563659E-01
H80  3.390697325149E-01  8.405033779570E-02 -3.082816436341E-01
C81 -4.849909264346E-01 -4.329359441070E-01 -2.963901250297E-01
C82  4.849909264346E-01  6.706405589304E-02 -2.036098749703E-01
C83  4.849909264346E-01  4.329359441070E-01  2.963901250297E-01
C84 -4.849909264346E-01 -6.706405589304E-02  2.036098749703E-01
H85 -4.734682611415E-01 -3.792196459671E-01 -1.370602602433E-01
H86  4.734682611415E-01  1.207803540329E-01 -3.629397397567E-01
H87  4.734682611415E-01  3.792196459671E-01  1.370602602433E-01
H88 -4.734682611415E-01 -1.207803540329E-01  3.629397397567E-01


#===END

data_OPT_STEP_52

_symmetry_space_group_name_H-M 'P 1'
_cell_length_a     18.05730712
_cell_length_b      7.62004547
_cell_length_c      6.40316706
_cell_angle_alpha   90.000000
_cell_angle_beta   91.153532
_cell_angle_gamma   90.000000

loop_
_atom_site_label
_atom_site_fract_x
_atom_site_fract_y
_atom_site_fract_z
C1  1.589776732526E-01 -3.803596590374E-01  4.830682438574E-01
C2 -1.589776732526E-01  1.196403409626E-01  1.693175614259E-02
C3 -1.589776732526E-01  3.803596590374E-01 -4.830682438574E-01
C4  1.589776732526E-01 -1.196403409626E-01 -1.693175614259E-02
H5  1.753827956355E-01 -2.811025785911E-01 -3.977061199212E-01
H6 -1.753827956355E-01  2.188974214089E-01 -1.022938800788E-01
H7 -1.753827956355E-01  2.811025785911E-01  3.977061199212E-01
H8  1.753827956355E-01 -2.188974214089E-01  1.022938800788E-01
C9  8.499291776092E-02 -3.843651194391E-01  4.106497547110E-01
C10 -8.499291776092E-02  1.156348805609E-01  8.935024528901E-02
C11 -8.499291776092E-02  3.843651194391E-01 -4.106497547110E-01
C12  8.499291776092E-02 -1.156348805609E-01 -8.935024528901E-02
H13  4.440855040786E-02 -2.918621834686E-01  4.780618546706E-01
H14 -4.440855040786E-02  2.081378165314E-01  2.193814532937E-02
H15 -4.440855040786E-02  2.918621834686E-01 -4.780618546706E-01
H16  4.440855040786E-02 -2.081378165314E-01 -2.193814532937E-02
C17  6.252259855207E-02  4.959402865023E-01  2.542647614531E-01
C18 -6.252259855207E-02 -4.059713497673E-03  2.457352385469E-01
C19 -6.252259855207E-02 -4.959402865023E-01 -2.542647614531E-01
C20  6.252259855207E-02  4.059713497673E-03 -2.457352385469E-01
H21  3.676116007315E-03  4.925434188295E-01  1.994213678579E-01
H22 -3.676116007315E-03 -7.456581170520E-03  3.005786321421E-01
H23 -3.676116007315E-03 -4.925434188295E-01 -1.994213678579E-01
H24  3.676116007315E-03  7.456581170520E-03 -3.005786321421E-01
C25  1.150698853604E-01  3.803058201350E-01  1.702785494152E-01
C26 -1.150698853604E-01 -1.196941798650E-01  3.297214505848E-01
C27 -1.150698853604E-01 -3.803058201350E-01 -1.702785494152E-01
C28  1.150698853604E-01  1.196941798650E-01 -3.297214505848E-01
H29  9.849668374809E-02  2.844490639175E-01  4.723496676891E-02
H30 -9.849668374809E-02 -2.155509360825E-01  4.527650332311E-01
H31 -9.849668374809E-02 -2.844490639175E-01 -4.723496676891E-02
H32  9.849668374809E-02  2.155509360825E-01 -4.527650332311E-01
C33  1.889180259967E-01  3.826049642376E-01  2.447898542905E-01
C34 -1.889180259967E-01 -1.173950357624E-01  2.552101457095E-01
C35 -1.889180259967E-01 -3.826049642376E-01 -2.447898542905E-01
C36  1.889180259967E-01  1.173950357624E-01 -2.552101457095E-01
H37  2.286719377459E-01  2.855882266658E-01  1.822451928400E-01
H38 -2.286719377459E-01 -2.144117733342E-01  3.177548071600E-01
H39 -2.286719377459E-01 -2.855882266658E-01 -1.822451928400E-01
H40  2.286719377459E-01  2.144117733342E-01 -3.177548071600E-01
C41  2.122234566682E-01 -4.978058094302E-01  4.024291987158E-01
C42 -2.122234566682E-01  2.194190569832E-03  9.757080128418E-02
C43 -2.122234566682E-01  4.978058094302E-01 -4.024291987158E-01
C44  2.122234566682E-01 -2.194190569832E-03 -9.757080128418E-02
C45  2.908888997411E-01 -4.931839818657E-01  4.816595376384E-01
C46 -2.908888997411E-01  6.816018134265E-03  1.834046236163E-02
C47 -2.908888997411E-01  4.931839818657E-01 -4.816595376384E-01
C48  2.908888997411E-01 -6.816018134265E-03 -1.834046236163E-02
C49  3.072525068821E-01 -4.342909249301E-01 -3.070713250941E-01
C50 -3.072525068821E-01  6.570907506992E-02 -1.929286749059E-01
C51 -3.072525068821E-01  4.342909249301E-01  3.070713250941E-01
C52  3.072525068821E-01 -6.570907506992E-02  1.929286749059E-01
H53  2.609501720092E-01 -4.052922323535E-01 -2.005017989977E-01
H54 -2.609501720092E-01  9.470776764654E-02 -2.994982010023E-01
H55 -2.609501720092E-01  4.052922323535E-01  2.005017989977E-01
H56  2.609501720092E-01 -9.470776764654E-02  2.994982010023E-01
C57  3.791470619480E-01 -4.153370587886E-01 -2.342303137840E-01
C58 -3.791470619480E-01  8.466294121140E-02 -2.657696862160E-01
C59 -3.791470619480E-01  4.153370587886E-01  2.342303137840E-01
C60  3.791470619480E-01 -8.466294121140E-02  2.657696862160E-01
H61  3.903132573774E-01 -3.672270426232E-01 -7.257391596690E-02
H62 -3.903132573774E-01  1.327729573768E-01 -4.274260840331E-01
H63 -3.903132573774E-01  3.672270426232E-01  7.257391596690E-02
H64  3.903132573774E-01 -1.327729573768E-01  4.274260840331E-01
C65  4.409121836646E-01 -4.564600692153E-01 -3.649847791746E-01
C66 -4.409121836646E-01  4.353993078475E-02 -1.350152208254E-01
C67 -4.409121836646E-01  4.564600692153E-01  3.649847791746E-01
C68  4.409121836646E-01 -4.353993078475E-02  1.350152208254E-01
C69  4.252994780966E-01  4.759632935670E-01  4.265762296529E-01
C70 -4.252994780966E-01 -2.403670643299E-02  7.342377034706E-02
C71 -4.252994780966E-01 -4.759632935670E-01 -4.265762296529E-01
C72  4.252994780966E-01  2.403670643299E-02 -7.342377034706E-02
C73  3.494001439415E-01  4.602241317750E-01  3.554789997099E-01
C74 -3.494001439415E-01 -3.977586822498E-02  1.445210002901E-01
C75 -3.494001439415E-01 -4.602241317750E-01 -3.554789997099E-01
C76  3.494001439415E-01  3.977586822498E-02 -1.445210002901E-01
H77  3.390697325149E-01  4.159496622043E-01  1.917183563659E-01
H78 -3.390697325149E-01 -8.405033779570E-02  3.082816436341E-01
H79 -3.390697325149E-01 -4.159496622043E-01 -1.917183563659E-01
H80  3.390697325149E-01  8.405033779570E-02 -3.082816436341E-01
C81 -4.849909264346E-01 -4.329359441070E-01 -2.963901250297E-01
C82  4.849909264346E-01  6.706405589304E-02 -2.036098749703E-01
C83  4.849909264346E-01  4.329359441070E-01  2.963901250297E-01
C84 -4.849909264346E-01 -6.706405589304E-02  2.036098749703E-01
H85 -4.734682611415E-01 -3.792196459671E-01 -1.370602602433E-01
H86  4.734682611415E-01  1.207803540329E-01 -3.629397397567E-01
H87  4.734682611415E-01  3.792196459671E-01  1.370602602433E-01
H88 -4.734682611415E-01 -1.207803540329E-01  3.629397397567E-01


#===END
