###############################################################################
#
#                    CRYSTAL17 CIF FILE
#
###############################################################################

data_OPT_STEP_1

_symmetry_space_group_name_H-M 'P 1'
_cell_length_a      6.30600000
_cell_length_b      7.69700000
_cell_length_c     16.48000000
_cell_angle_alpha   98.769997
_cell_angle_beta   91.250000
_cell_angle_gamma   95.809998

loop_
_atom_site_label
_atom_site_fract_x
_atom_site_fract_y
_atom_site_fract_z
C1  3.360000000000E-02  2.365000000000E-01  3.296600000000E-01
C2 -3.360000000000E-02 -2.365000000000E-01 -3.296600000000E-01
C3  8.440000000000E-02  3.453000000000E-01  4.023000000000E-01
C4 -8.440000000000E-02 -3.453000000000E-01 -4.023000000000E-01
C5  2.919000000000E-01  4.442000000000E-01  4.161300000000E-01
C6 -2.919000000000E-01 -4.442000000000E-01 -4.161300000000E-01
C7  4.389000000000E-01  4.293000000000E-01  3.574500000000E-01
C8 -4.389000000000E-01 -4.293000000000E-01 -3.574500000000E-01
C9  3.944000000000E-01  3.167000000000E-01  2.800400000000E-01
C10 -3.944000000000E-01 -3.167000000000E-01 -2.800400000000E-01
C11  1.854000000000E-01  2.159000000000E-01  2.658600000000E-01
C12 -1.854000000000E-01 -2.159000000000E-01 -2.658600000000E-01
C13  1.384000000000E-01  1.053000000000E-01  1.917800000000E-01
C14 -1.384000000000E-01 -1.053000000000E-01 -1.917800000000E-01
C15  2.889000000000E-01  8.430000000000E-02  1.295200000000E-01
C16 -2.889000000000E-01 -8.430000000000E-02 -1.295200000000E-01
C17  4.992000000000E-01  1.857000000000E-01  1.435400000000E-01
C18 -4.992000000000E-01 -1.857000000000E-01 -1.435400000000E-01
C19 -4.588000000000E-01  2.984000000000E-01  2.188900000000E-01
C20  4.588000000000E-01 -2.984000000000E-01 -2.188900000000E-01
C21  2.445000000000E-01 -2.930000000000E-02  5.449000000000E-02
C22 -2.445000000000E-01  2.930000000000E-02 -5.449000000000E-02
C23  3.951000000000E-01 -5.100000000000E-02 -7.000000000000E-03
C24 -3.951000000000E-01  5.100000000000E-02  7.000000000000E-03
C25 -3.512000000000E-01  1.645000000000E-01  8.197000000000E-02
C26  3.512000000000E-01 -1.645000000000E-01 -8.197000000000E-02
C27 -4.526000000000E-01 -1.129000000000E-01  3.066000000000E-01
C28  4.526000000000E-01  1.129000000000E-01 -3.066000000000E-01
C29 -4.127000000000E-01 -7.170000000000E-02  3.889200000000E-01
C30  4.127000000000E-01  7.170000000000E-02 -3.889200000000E-01
C31 -2.229000000000E-01 -1.218000000000E-01  4.252600000000E-01
C32  2.229000000000E-01  1.218000000000E-01 -4.252600000000E-01
C33 -8.220000000000E-02 -2.096000000000E-01  3.782600000000E-01
C34  8.220000000000E-02  2.096000000000E-01 -3.782600000000E-01
C35 -1.169000000000E-01 -2.567000000000E-01  2.911100000000E-01
C36  1.169000000000E-01  2.567000000000E-01 -2.911100000000E-01
C37 -3.091000000000E-01 -2.059000000000E-01  2.538500000000E-01
C38  3.091000000000E-01  2.059000000000E-01 -2.538500000000E-01
C39 -3.463000000000E-01 -2.500000000000E-01  1.690900000000E-01
C40  3.463000000000E-01  2.500000000000E-01 -1.690900000000E-01
C41 -2.026000000000E-01 -3.408000000000E-01  1.176500000000E-01
C42  2.026000000000E-01  3.408000000000E-01 -1.176500000000E-01
C43 -1.030000000000E-02 -3.909000000000E-01  1.550900000000E-01
C44  1.030000000000E-02  3.909000000000E-01 -1.550900000000E-01
C45  2.500000000000E-02 -3.462000000000E-01  2.412200000000E-01
C46 -2.500000000000E-02  3.462000000000E-01 -2.412200000000E-01
C47 -2.388000000000E-01 -3.843000000000E-01  3.263000000000E-02
C48  2.388000000000E-01  3.843000000000E-01 -3.263000000000E-02
C49 -9.600000000000E-02 -4.745000000000E-01 -1.897000000000E-02
C50  9.600000000000E-02  4.745000000000E-01  1.897000000000E-02
C51  1.320000000000E-01 -4.813000000000E-01  1.045600000000E-01
C52 -1.320000000000E-01  4.813000000000E-01 -1.045600000000E-01
H53 -1.015000000000E-01  1.745000000000E-01  3.212000000000E-01
H54  1.015000000000E-01 -1.745000000000E-01 -3.212000000000E-01
H55 -1.530000000000E-02  3.557000000000E-01  4.431000000000E-01
H56  1.530000000000E-02 -3.557000000000E-01 -4.431000000000E-01
H57  3.251000000000E-01 -4.813000000000E-01  4.657000000000E-01
H58 -3.251000000000E-01  4.813000000000E-01 -4.657000000000E-01
H59 -4.278000000000E-01  4.938000000000E-01  3.676000000000E-01
H60  4.278000000000E-01 -4.938000000000E-01 -3.676000000000E-01
H61  3.700000000000E-03  4.290000000000E-02  1.827000000000E-01
H62 -3.700000000000E-03 -4.290000000000E-02 -1.827000000000E-01
H63 -3.259000000000E-01  3.638000000000E-01  2.281000000000E-01
H64  3.259000000000E-01 -3.638000000000E-01 -2.281000000000E-01
H65  1.103000000000E-01 -9.260000000000E-02  4.520000000000E-02
H66 -1.103000000000E-01  9.260000000000E-02 -4.520000000000E-02
H67 -2.174000000000E-01  2.283000000000E-01  9.120000000000E-02
H68  2.174000000000E-01 -2.283000000000E-01 -9.120000000000E-02
H69  4.241000000000E-01 -8.020000000000E-02  2.838000000000E-01
H70 -4.241000000000E-01  8.020000000000E-02 -2.838000000000E-01
H71  4.921000000000E-01 -1.130000000000E-02  4.218000000000E-01
H72 -4.921000000000E-01  1.130000000000E-02 -4.218000000000E-01
H73 -1.965000000000E-01 -9.340000000000E-02  4.817000000000E-01
H74  1.965000000000E-01  9.340000000000E-02 -4.817000000000E-01
H75  3.960000000000E-02 -2.400000000000E-01  4.031000000000E-01
H76 -3.960000000000E-02  2.400000000000E-01 -4.031000000000E-01
H77 -4.695000000000E-01 -2.188000000000E-01  1.456000000000E-01
H78  4.695000000000E-01  2.188000000000E-01 -1.456000000000E-01
H79  1.474000000000E-01 -3.777000000000E-01  2.653000000000E-01
H80 -1.474000000000E-01  3.777000000000E-01 -2.653000000000E-01
H81 -3.618000000000E-01 -3.526000000000E-01  9.100000000000E-03
H82  3.618000000000E-01  3.526000000000E-01 -9.100000000000E-03
H83  2.544000000000E-01  4.868000000000E-01  1.284000000000E-01
H84 -2.544000000000E-01 -4.868000000000E-01 -1.284000000000E-01


#===END

data_OPT_STEP_2

_symmetry_space_group_name_H-M 'P 1'
_cell_length_a      6.30600000
_cell_length_b      7.69700000
_cell_length_c     16.48000000
_cell_angle_alpha   98.769997
_cell_angle_beta   91.250000
_cell_angle_gamma   95.809998

loop_
_atom_site_label
_atom_site_fract_x
_atom_site_fract_y
_atom_site_fract_z
C1  3.360000000000E-02  2.365000000000E-01  3.296600000000E-01
C2 -3.360000000000E-02 -2.365000000000E-01 -3.296600000000E-01
C3  8.440000000000E-02  3.453000000000E-01  4.023000000000E-01
C4 -8.440000000000E-02 -3.453000000000E-01 -4.023000000000E-01
C5  2.919000000000E-01  4.442000000000E-01  4.161300000000E-01
C6 -2.919000000000E-01 -4.442000000000E-01 -4.161300000000E-01
C7  4.389000000000E-01  4.293000000000E-01  3.574500000000E-01
C8 -4.389000000000E-01 -4.293000000000E-01 -3.574500000000E-01
C9  3.944000000000E-01  3.167000000000E-01  2.800400000000E-01
C10 -3.944000000000E-01 -3.167000000000E-01 -2.800400000000E-01
C11  1.854000000000E-01  2.159000000000E-01  2.658600000000E-01
C12 -1.854000000000E-01 -2.159000000000E-01 -2.658600000000E-01
C13  1.384000000000E-01  1.053000000000E-01  1.917800000000E-01
C14 -1.384000000000E-01 -1.053000000000E-01 -1.917800000000E-01
C15  2.889000000000E-01  8.430000000000E-02  1.295200000000E-01
C16 -2.889000000000E-01 -8.430000000000E-02 -1.295200000000E-01
C17  4.992000000000E-01  1.857000000000E-01  1.435400000000E-01
C18 -4.992000000000E-01 -1.857000000000E-01 -1.435400000000E-01
C19 -4.588000000000E-01  2.984000000000E-01  2.188900000000E-01
C20  4.588000000000E-01 -2.984000000000E-01 -2.188900000000E-01
C21  2.445000000000E-01 -2.930000000000E-02  5.449000000000E-02
C22 -2.445000000000E-01  2.930000000000E-02 -5.449000000000E-02
C23  3.951000000000E-01 -5.100000000000E-02 -7.000000000000E-03
C24 -3.951000000000E-01  5.100000000000E-02  7.000000000000E-03
C25 -3.512000000000E-01  1.645000000000E-01  8.197000000000E-02
C26  3.512000000000E-01 -1.645000000000E-01 -8.197000000000E-02
C27 -4.526000000000E-01 -1.129000000000E-01  3.066000000000E-01
C28  4.526000000000E-01  1.129000000000E-01 -3.066000000000E-01
C29 -4.127000000000E-01 -7.170000000000E-02  3.889200000000E-01
C30  4.127000000000E-01  7.170000000000E-02 -3.889200000000E-01
C31 -2.229000000000E-01 -1.218000000000E-01  4.252600000000E-01
C32  2.229000000000E-01  1.218000000000E-01 -4.252600000000E-01
C33 -8.220000000000E-02 -2.096000000000E-01  3.782600000000E-01
C34  8.220000000000E-02  2.096000000000E-01 -3.782600000000E-01
C35 -1.169000000000E-01 -2.567000000000E-01  2.911100000000E-01
C36  1.169000000000E-01  2.567000000000E-01 -2.911100000000E-01
C37 -3.091000000000E-01 -2.059000000000E-01  2.538500000000E-01
C38  3.091000000000E-01  2.059000000000E-01 -2.538500000000E-01
C39 -3.463000000000E-01 -2.500000000000E-01  1.690900000000E-01
C40  3.463000000000E-01  2.500000000000E-01 -1.690900000000E-01
C41 -2.026000000000E-01 -3.408000000000E-01  1.176500000000E-01
C42  2.026000000000E-01  3.408000000000E-01 -1.176500000000E-01
C43 -1.030000000000E-02 -3.909000000000E-01  1.550900000000E-01
C44  1.030000000000E-02  3.909000000000E-01 -1.550900000000E-01
C45  2.500000000000E-02 -3.462000000000E-01  2.412200000000E-01
C46 -2.500000000000E-02  3.462000000000E-01 -2.412200000000E-01
C47 -2.388000000000E-01 -3.843000000000E-01  3.263000000000E-02
C48  2.388000000000E-01  3.843000000000E-01 -3.263000000000E-02
C49 -9.600000000000E-02 -4.745000000000E-01 -1.897000000000E-02
C50  9.600000000000E-02  4.745000000000E-01  1.897000000000E-02
C51  1.320000000000E-01 -4.813000000000E-01  1.045600000000E-01
C52 -1.320000000000E-01  4.813000000000E-01 -1.045600000000E-01
H53 -1.015000000000E-01  1.745000000000E-01  3.212000000000E-01
H54  1.015000000000E-01 -1.745000000000E-01 -3.212000000000E-01
H55 -1.530000000000E-02  3.557000000000E-01  4.431000000000E-01
H56  1.530000000000E-02 -3.557000000000E-01 -4.431000000000E-01
H57  3.251000000000E-01 -4.813000000000E-01  4.657000000000E-01
H58 -3.251000000000E-01  4.813000000000E-01 -4.657000000000E-01
H59 -4.278000000000E-01  4.938000000000E-01  3.676000000000E-01
H60  4.278000000000E-01 -4.938000000000E-01 -3.676000000000E-01
H61  3.700000000000E-03  4.290000000000E-02  1.827000000000E-01
H62 -3.700000000000E-03 -4.290000000000E-02 -1.827000000000E-01
H63 -3.259000000000E-01  3.638000000000E-01  2.281000000000E-01
H64  3.259000000000E-01 -3.638000000000E-01 -2.281000000000E-01
H65  1.103000000000E-01 -9.260000000000E-02  4.520000000000E-02
H66 -1.103000000000E-01  9.260000000000E-02 -4.520000000000E-02
H67 -2.174000000000E-01  2.283000000000E-01  9.120000000000E-02
H68  2.174000000000E-01 -2.283000000000E-01 -9.120000000000E-02
H69  4.241000000000E-01 -8.020000000000E-02  2.838000000000E-01
H70 -4.241000000000E-01  8.020000000000E-02 -2.838000000000E-01
H71  4.921000000000E-01 -1.130000000000E-02  4.218000000000E-01
H72 -4.921000000000E-01  1.130000000000E-02 -4.218000000000E-01
H73 -1.965000000000E-01 -9.340000000000E-02  4.817000000000E-01
H74  1.965000000000E-01  9.340000000000E-02 -4.817000000000E-01
H75  3.960000000000E-02 -2.400000000000E-01  4.031000000000E-01
H76 -3.960000000000E-02  2.400000000000E-01 -4.031000000000E-01
H77 -4.695000000000E-01 -2.188000000000E-01  1.456000000000E-01
H78  4.695000000000E-01  2.188000000000E-01 -1.456000000000E-01
H79  1.474000000000E-01 -3.777000000000E-01  2.653000000000E-01
H80 -1.474000000000E-01  3.777000000000E-01 -2.653000000000E-01
H81 -3.618000000000E-01 -3.526000000000E-01  9.100000000000E-03
H82  3.618000000000E-01  3.526000000000E-01 -9.100000000000E-03
H83  2.544000000000E-01  4.868000000000E-01  1.284000000000E-01
H84 -2.544000000000E-01 -4.868000000000E-01 -1.284000000000E-01


#===END

data_OPT_STEP_3

_symmetry_space_group_name_H-M 'P 1'
_cell_length_a      6.30945396
_cell_length_b      7.69240578
_cell_length_c     16.51331262
_cell_angle_alpha   98.588758
_cell_angle_beta   91.304816
_cell_angle_gamma   95.969867

loop_
_atom_site_label
_atom_site_fract_x
_atom_site_fract_y
_atom_site_fract_z
C1  3.194740408409E-02  2.358392668828E-01  3.286207380808E-01
C2 -3.194740408409E-02 -2.358392668828E-01 -3.286207380808E-01
C3  8.221225315394E-02  3.461351562402E-01  4.009719215867E-01
C4 -8.221225315394E-02 -3.461351562402E-01 -4.009719215867E-01
C5  2.905864904707E-01  4.449597726268E-01  4.151110211834E-01
C6 -2.905864904707E-01 -4.449597726268E-01 -4.151110211834E-01
C7  4.386405548868E-01  4.308054032997E-01  3.564806142154E-01
C8 -4.386405548868E-01 -4.308054032997E-01 -3.564806142154E-01
C9  3.942940380340E-01  3.166929806233E-01  2.793969613454E-01
C10 -3.942940380340E-01 -3.166929806233E-01 -2.793969613454E-01
C11  1.841425072154E-01  2.164664366959E-01  2.648818980160E-01
C12 -1.841425072154E-01 -2.164664366959E-01 -2.648818980160E-01
C13  1.371777895604E-01  1.044942860479E-01  1.910915930987E-01
C14 -1.371777895604E-01 -1.044942860479E-01 -1.910915930987E-01
C15  2.883008667974E-01  8.437568619812E-02  1.289304931170E-01
C16 -2.883008667974E-01 -8.437568619812E-02 -1.289304931170E-01
C17  4.996606171867E-01  1.851113191288E-01  1.433174822053E-01
C18 -4.996606171867E-01 -1.851113191288E-01 -1.433174822053E-01
C19 -4.573213541946E-01  2.982725925238E-01  2.187023742110E-01
C20  4.573213541946E-01 -2.982725925238E-01 -2.187023742110E-01
C21  2.434240006312E-01 -2.998836922634E-02  5.423923685613E-02
C22 -2.434240006312E-01  2.998836922634E-02 -5.423923685613E-02
C23  3.943931587253E-01 -5.042219141613E-02 -7.231473488015E-03
C24 -3.943931587253E-01  5.042219141613E-02  7.231473488015E-03
C25 -3.501395993957E-01  1.650052461105E-01  8.193776761114E-02
C26  3.501395993957E-01 -1.650052461105E-01 -8.193776761114E-02
C27 -4.516379778382E-01 -1.137021810143E-01  3.059217207093E-01
C28  4.516379778382E-01  1.137021810143E-01 -3.059217207093E-01
C29 -4.111438524270E-01 -7.286836163709E-02  3.883931548012E-01
C30  4.111438524270E-01  7.286836163709E-02 -3.883931548012E-01
C31 -2.212581667820E-01 -1.232958131432E-01  4.249110253056E-01
C32  2.212581667820E-01  1.232958131432E-01 -4.249110253056E-01
C33 -7.983491916043E-02 -2.107564167799E-01  3.778235785145E-01
C34  7.983491916043E-02  2.107564167799E-01 -3.778235785145E-01
C35 -1.150375474887E-01 -2.569317011335E-01  2.905802993084E-01
C36  1.150375474887E-01  2.569317011335E-01 -2.905802993084E-01
C37 -3.079747474292E-01 -2.068920768540E-01  2.533736459840E-01
C38  3.079747474292E-01  2.068920768540E-01 -2.533736459840E-01
C39 -3.455629850903E-01 -2.497716858593E-01  1.686854669842E-01
C40  3.455629850903E-01  2.497716858593E-01 -1.686854669842E-01
C41 -2.022384072764E-01 -3.413559042750E-01  1.174247407915E-01
C42  2.022384072764E-01  3.413559042750E-01 -1.174247407915E-01
C43 -9.492210502999E-03 -3.913230010551E-01  1.548252458279E-01
C44  9.492210502999E-03  3.913230010551E-01 -1.548252458279E-01
C45  2.653126209716E-02 -3.471467455215E-01  2.409695272012E-01
C46 -2.653126209716E-02  3.471467455215E-01 -2.409695272012E-01
C47 -2.391802770517E-01 -3.842862913797E-01  3.239323097936E-02
C48  2.391802770517E-01  3.842862913797E-01 -3.239323097936E-02
C49 -9.655842604834E-02 -4.750665365519E-01 -1.889043900268E-02
C50  9.655842604834E-02  4.750665365520E-01  1.889043900268E-02
C51  1.330037977452E-01 -4.816799953254E-01  1.044912180879E-01
C52 -1.330037977452E-01  4.816799953254E-01 -1.044912180879E-01
H53 -1.068101691259E-01  1.696283268142E-01  3.200927662118E-01
H54  1.068101691259E-01 -1.696283268142E-01 -3.200927662118E-01
H55 -2.111263981506E-02  3.570367272466E-01  4.429174731217E-01
H56  2.111263981506E-02 -3.570367272466E-01 -4.429174731217E-01
H57  3.255390695712E-01 -4.795950539358E-01  4.665954058092E-01
H58 -3.255390695712E-01  4.795950539358E-01 -4.665954058092E-01
H59 -4.236689160824E-01  4.982410065620E-01  3.667513188237E-01
H60  4.236689160824E-01 -4.982410065620E-01 -3.667513188237E-01
H61 -1.436249161721E-03  3.827433086361E-02  1.819606851294E-01
H62  1.436249161721E-03 -3.827433086361E-02 -1.819606851294E-01
H63 -3.192206114788E-01  3.651752648042E-01  2.284605020791E-01
H64  3.192206114788E-01 -3.651752648042E-01 -2.284605020791E-01
H65  1.051445943182E-01 -9.679300184398E-02  4.492430076049E-02
H66 -1.051445943182E-01  9.679300184398E-02 -4.492430076049E-02
H67 -2.119885603283E-01  2.318118761305E-01  9.136149718328E-02
H68  2.119885603283E-01 -2.318118761305E-01 -9.136149718328E-02
H69  4.213095288345E-01 -7.953948710511E-02  2.821895363626E-01
H70 -4.213095288345E-01  7.953948710511E-02 -2.821895363626E-01
H71  4.912142667314E-01 -1.010411318315E-02  4.223608129400E-01
H72 -4.912142667314E-01  1.010411318315E-02 -4.223608129400E-01
H73 -1.939925516533E-01 -9.412582606654E-02  4.831682455468E-01
H74  1.939925516533E-01  9.412582606654E-02 -4.831682455468E-01
H75  4.596163370112E-02 -2.427792687133E-01  4.033578980947E-01
H76 -4.596163370112E-02  2.427792687133E-01 -4.033578980947E-01
H77 -4.721558604228E-01 -2.162776219776E-01  1.443359549922E-01
H78  4.721558604228E-01  2.162776219776E-01 -1.443359549922E-01
H79  1.525803050876E-01 -3.805497243605E-01  2.658624713896E-01
H80 -1.525803050876E-01  3.805497243605E-01 -2.658624713896E-01
H81 -3.658855361676E-01 -3.508531291080E-01  8.012180316848E-03
H82  3.658855361676E-01  3.508531291080E-01 -8.012180316848E-03
H83  2.593118787100E-01  4.849119728956E-01  1.291302710524E-01
H84 -2.593118787100E-01 -4.849119728956E-01 -1.291302710524E-01


#===END

data_OPT_STEP_4

_symmetry_space_group_name_H-M 'P 1'
_cell_length_a      6.39130467
_cell_length_b      7.73027653
_cell_length_c     16.57645754
_cell_angle_alpha   98.686403
_cell_angle_beta   91.113883
_cell_angle_gamma   95.751181

loop_
_atom_site_label
_atom_site_fract_x
_atom_site_fract_y
_atom_site_fract_z
C1  3.327436984903E-02  2.394281584033E-01  3.274446433008E-01
C2 -3.327436984903E-02 -2.394281584033E-01 -3.274446433008E-01
C3  8.486898950988E-02  3.450779935134E-01  4.007173392295E-01
C4 -8.486898950988E-02 -3.450779935134E-01 -4.007173392295E-01
C5  2.885761412028E-01  4.466013852424E-01  4.142360140226E-01
C6 -2.885761412028E-01 -4.466013852424E-01 -4.142360140226E-01
C7  4.382062861753E-01  4.294138804019E-01  3.563210937412E-01
C8 -4.382062861753E-01 -4.294138804019E-01 -3.563210937412E-01
C9  3.901657875943E-01  3.225416486543E-01  2.775096442003E-01
C10 -3.901657875943E-01 -3.225416486543E-01 -2.775096442003E-01
C11  1.858788340765E-01  2.176503987303E-01  2.644188990252E-01
C12 -1.858788340765E-01 -2.176503987303E-01 -2.644188990252E-01
C13  1.389307731927E-01  1.066474699508E-01  1.904712910872E-01
C14 -1.389307731927E-01 -1.066474699508E-01 -1.904712910872E-01
C15  2.899029582912E-01  8.546220159914E-02  1.285266311354E-01
C16 -2.899029582912E-01 -8.546220159914E-02 -1.285266311354E-01
C17  4.959218195447E-01  1.891070443275E-01  1.418634053651E-01
C18 -4.959218195447E-01 -1.891070443275E-01 -1.418634053651E-01
C19 -4.609133690208E-01  3.030818612775E-01  2.172751785744E-01
C20  4.609133690208E-01 -3.030818612775E-01 -2.172751785744E-01
C21  2.449742459813E-01 -2.828219468885E-02  5.398257110937E-02
C22 -2.449742459813E-01  2.828219468885E-02 -5.398257110937E-02
C23  3.976427830269E-01 -5.306629791700E-02 -6.377338462073E-03
C24 -3.976427830269E-01  5.306629791700E-02  6.377338462073E-03
C25 -3.518294744115E-01  1.644748458276E-01  8.187764659005E-02
C26  3.518294744115E-01 -1.644748458276E-01 -8.187764659005E-02
C27 -4.501974382601E-01 -1.150312274012E-01  3.056007457597E-01
C28  4.501974382601E-01  1.150312274012E-01 -3.056007457597E-01
C29 -4.100292966335E-01 -7.494949932528E-02  3.881206615214E-01
C30  4.100292966335E-01  7.494949932528E-02 -3.881206615214E-01
C31 -2.216573674706E-01 -1.241060679150E-01  4.244735070558E-01
C32  2.216573674706E-01  1.241060679150E-01 -4.244735070558E-01
C33 -8.058454047636E-02 -2.114736232865E-01  3.771440308442E-01
C34  8.058454047636E-02  2.114736232865E-01 -3.771440308442E-01
C35 -1.176153127011E-01 -2.597748323373E-01  2.901126151438E-01
C36  1.176153127011E-01  2.597748323373E-01 -2.901126151438E-01
C37 -3.065205350374E-01 -2.077384058719E-01  2.530940791084E-01
C38  3.065205350374E-01  2.077384058719E-01 -2.530940791084E-01
C39 -3.458083822009E-01 -2.528739860298E-01  1.688484473438E-01
C40  3.458083822009E-01  2.528739860298E-01 -1.688484473438E-01
C41 -2.012448701984E-01 -3.418657341069E-01  1.173622648197E-01
C42  2.012448701984E-01  3.418657341069E-01 -1.173622648197E-01
C43 -1.082371701951E-02 -3.916913887435E-01  1.544210951233E-01
C44  1.082371701951E-02  3.916913887435E-01 -1.544210951233E-01
C45  2.596915646715E-02 -3.461159514707E-01  2.404350231486E-01
C46 -2.596915646715E-02  3.461159514707E-01 -2.404350231486E-01
C47 -2.382583135984E-01 -3.852512004642E-01  3.241433637949E-02
C48  2.382583135984E-01  3.852512004642E-01 -3.241433637949E-02
C49 -9.388761674917E-02 -4.730004085367E-01 -1.878676557578E-02
C50  9.388761674917E-02  4.730004085367E-01  1.878676557578E-02
C51  1.315942535737E-01 -4.814574918973E-01  1.041735553759E-01
C52 -1.315942535737E-01  4.814574918973E-01 -1.041735553759E-01
H53 -1.048574825654E-01  1.606871477727E-01  3.203257065315E-01
H54  1.048574825654E-01 -1.606871477727E-01 -3.203257065315E-01
H55 -2.284556071166E-02  3.578766222390E-01  4.444281053314E-01
H56  2.284556071166E-02 -3.578766222390E-01 -4.444281053314E-01
H57  3.252681471203E-01 -4.792523282031E-01  4.693307830531E-01
H58 -3.252681471203E-01  4.792523282031E-01 -4.693307830531E-01
H59 -4.185918648088E-01  4.982316451950E-01  3.669790794425E-01
H60  4.185918648088E-01 -4.982316451950E-01 -3.669790794425E-01
H61  1.289135020381E-04  2.913227481494E-02  1.828400388904E-01
H62 -1.289135020381E-04 -2.913227481494E-02 -1.828400388904E-01
H63 -3.109222109883E-01  3.601191419758E-01  2.304329635710E-01
H64  3.109222109883E-01 -3.601191419758E-01 -2.304329635710E-01
H65  1.045241971601E-01 -1.025879777158E-01  4.550216552397E-02
H66 -1.045241971601E-01  1.025879777158E-01 -4.550216552397E-02
H67 -2.089288708302E-01  2.339758177937E-01  9.172793879838E-02
H68  2.089288708302E-01 -2.339758177937E-01 -9.172793879838E-02
H69  4.207710135278E-01 -7.602714997892E-02  2.803839893931E-01
H70 -4.207710135278E-01  7.602714997892E-02 -2.803839893931E-01
H71  4.920809096949E-01 -5.294417777160E-03  4.238986659580E-01
H72 -4.920809096949E-01  5.294417777160E-03 -4.238986659580E-01
H73 -1.948395299496E-01 -9.434943227982E-02  4.854583086980E-01
H74  1.948395299496E-01  9.434943227982E-02 -4.854583086980E-01
H75  4.946515916207E-02 -2.468906193697E-01  4.031516761130E-01
H76 -4.946515916207E-02  2.468906193697E-01 -4.031516761130E-01
H77 -4.716548906480E-01 -2.098422210212E-01  1.429936118444E-01
H78  4.716548906480E-01  2.098422210212E-01 -1.429936118444E-01
H79  1.540016033416E-01 -3.851210272504E-01  2.664517090042E-01
H80 -1.540016033416E-01  3.851210272504E-01 -2.664517090042E-01
H81 -3.670674823589E-01 -3.467202432588E-01  6.751286178117E-03
H82  3.670674823589E-01  3.467202432588E-01 -6.751286178117E-03
H83  2.619015479403E-01  4.826039034336E-01  1.298181861140E-01
H84 -2.619015479403E-01 -4.826039034336E-01 -1.298181861140E-01


#===END

data_OPT_STEP_5

_symmetry_space_group_name_H-M 'P 1'
_cell_length_a      6.45263168
_cell_length_b      7.83998237
_cell_length_c     16.65340081
_cell_angle_alpha   99.403269
_cell_angle_beta   90.550699
_cell_angle_gamma   96.834491

loop_
_atom_site_label
_atom_site_fract_x
_atom_site_fract_y
_atom_site_fract_z
C1  3.772092254151E-02  2.340347615820E-01  3.284447764788E-01
C2 -3.772092254151E-02 -2.340347615820E-01 -3.284447764788E-01
C3  8.426304127467E-02  3.494746421819E-01  3.995285090649E-01
C4 -8.426304127467E-02 -3.494746421819E-01 -3.995285090649E-01
C5  2.886560124936E-01  4.491206042353E-01  4.137970861407E-01
C6 -2.886560124936E-01 -4.491206042353E-01 -4.137970861407E-01
C7  4.351074330064E-01  4.380652538422E-01  3.545475311242E-01
C8 -4.351074330064E-01 -4.380652538422E-01 -3.545475311242E-01
C9  3.908953425904E-01  3.236915732268E-01  2.773186449400E-01
C10 -3.908953425904E-01 -3.236915732268E-01 -2.773186449400E-01
C11  1.827860857916E-01  2.261373014679E-01  2.622665415537E-01
C12 -1.827860857916E-01 -2.261373014679E-01 -2.622665415537E-01
C13  1.395549888818E-01  1.075104140708E-01  1.900303760927E-01
C14 -1.395549888818E-01 -1.075104140708E-01 -1.900303760927E-01
C15  2.868793717882E-01  9.278455520218E-02  1.265736135372E-01
C16 -2.868793717882E-01 -9.278455520218E-02 -1.265736135372E-01
C17  4.960170059257E-01  1.901154530493E-01  1.416407476349E-01
C18 -4.960170059257E-01 -1.901154530493E-01 -1.416407476349E-01
C19 -4.559500998085E-01  2.969633515471E-01  2.190282883577E-01
C20  4.559500998085E-01 -2.969633515471E-01 -2.190282883577E-01
C21  2.453059928746E-01 -2.831525124843E-02  5.384067794280E-02
C22 -2.453059928746E-01  2.831525124843E-02 -5.384067794280E-02
C23  3.952052269497E-01 -4.841585768490E-02 -7.616332345132E-03
C24 -3.952052269497E-01  4.841585768490E-02  7.616332345132E-03
C25 -3.532230874290E-01  1.679261699605E-01  8.122213851181E-02
C26  3.532230874290E-01 -1.679261699605E-01 -8.122213851181E-02
C27 -4.383142060833E-01 -1.089225926223E-01  3.058903177622E-01
C28  4.383142060833E-01  1.089225926223E-01 -3.058903177622E-01
C29 -4.009387833694E-01 -7.201778234133E-02  3.885655170590E-01
C30  4.009387833694E-01  7.201778234133E-02 -3.885655170590E-01
C31 -2.243407563827E-01 -1.324903423201E-01  4.252873357244E-01
C32  2.243407563827E-01  1.324903423201E-01 -4.252873357244E-01
C33 -8.763760647852E-02 -2.224626870307E-01  3.777331298633E-01
C34  8.763760647852E-02  2.224626870307E-01 -3.777331298633E-01
C35 -1.209358679156E-01 -2.657528877954E-01  2.904275371976E-01
C36  1.209358679156E-01  2.657528877954E-01 -2.904275371976E-01
C37 -3.026029137050E-01 -2.094259497768E-01  2.535974308014E-01
C38  3.026029137050E-01  2.094259497768E-01 -2.535974308014E-01
C39 -3.341143184228E-01 -2.442022024570E-01  1.687792525967E-01
C40  3.341143184228E-01  2.442022024570E-01 -1.687792525967E-01
C41 -1.981152304522E-01 -3.421914796608E-01  1.176250808940E-01
C42  1.981152304522E-01  3.421914796608E-01 -1.176250808940E-01
C43 -1.624371625674E-02 -3.983182151159E-01  1.546802889666E-01
C44  1.624371625674E-02  3.983182151159E-01 -1.546802889666E-01
C45  1.589941321741E-02 -3.581878391462E-01  2.409675432860E-01
C46 -1.589941321741E-02  3.581878391462E-01 -2.409675432860E-01
C47 -2.305480124579E-01 -3.804486959514E-01  3.242036563339E-02
C48  2.305480124579E-01  3.804486959514E-01 -3.242036563339E-02
C49 -9.244596234878E-02 -4.740491582690E-01 -1.848984356354E-02
C50  9.244596234878E-02  4.740491582690E-01  1.848984356354E-02
C51  1.245661692315E-01 -4.868647123324E-01  1.042152489881E-01
C52 -1.245661692315E-01  4.868647123324E-01 -1.042152489881E-01
H53 -9.401202701990E-02  1.381880732683E-01  3.245706464713E-01
H54  9.401202701990E-02 -1.381880732683E-01 -3.245706464713E-01
H55 -2.411300695054E-02  3.608356077952E-01  4.443802247410E-01
H56  2.411300695054E-02 -3.608356077952E-01 -4.443802247410E-01
H57  3.270547586909E-01 -4.793839444698E-01  4.709269133454E-01
H58 -3.270547586909E-01  4.793839444698E-01 -4.709269133454E-01
H59 -4.185645206206E-01 -4.931661446515E-01  3.656275245689E-01
H60  4.185645206206E-01  4.931661446515E-01 -3.656275245689E-01
H61  6.949446283016E-03  1.293796825015E-02  1.858809964910E-01
H62 -6.949446283016E-03 -1.293796825015E-02 -1.858809964910E-01
H63 -2.943777832709E-01  3.380819788930E-01  2.365309150977E-01
H64  2.943777832709E-01 -3.380819788930E-01 -2.365309150977E-01
H65  1.075360278746E-01 -1.132155633276E-01  4.747099036704E-02
H66 -1.075360278746E-01  1.132155633276E-01 -4.747099036704E-02
H67 -2.082468551807E-01  2.392868185489E-01  9.118648869144E-02
H68  2.082468551807E-01 -2.392868185489E-01 -9.118648869144E-02
H69  4.393277711096E-01 -6.019449423822E-02  2.797697846930E-01
H70 -4.393277711096E-01  6.019449423822E-02 -2.797697846930E-01
H71 -4.938823039439E-01  5.674422352197E-03  4.247866344527E-01
H72  4.938823039439E-01 -5.674422352197E-03 -4.247866344527E-01
H73 -1.985840122077E-01 -1.032652886919E-01  4.873502077389E-01
H74  1.985840122077E-01  1.032652886919E-01 -4.873502077389E-01
H75  4.421270487383E-02 -2.567453169717E-01  4.032364547197E-01
H76 -4.421270487383E-02  2.567453169717E-01 -4.032364547197E-01
H77 -4.505207338411E-01 -1.871434103376E-01  1.418161149275E-01
H78  4.505207338411E-01  1.871434103376E-01 -1.418161149275E-01
H79  1.407091337023E-01 -4.022049220728E-01  2.673942480692E-01
H80 -1.407091337023E-01  4.022049220728E-01 -2.673942480692E-01
H81 -3.548428903074E-01 -3.352371712837E-01  6.088533869970E-03
H82  3.548428903074E-01  3.352371712837E-01 -6.088533869970E-03
H83  2.542831261389E-01  4.762207428942E-01  1.301129644574E-01
H84 -2.542831261389E-01 -4.762207428942E-01 -1.301129644574E-01


#===END

data_OPT_STEP_6

_symmetry_space_group_name_H-M 'P 1'
_cell_length_a      6.28142230
_cell_length_b      8.16438463
_cell_length_c     16.87377700
_cell_angle_alpha  100.863718
_cell_angle_beta   90.906903
_cell_angle_gamma   96.618414

loop_
_atom_site_label
_atom_site_fract_x
_atom_site_fract_y
_atom_site_fract_z
C1  3.284156050025E-02  2.318653078614E-01  3.271334813047E-01
C2 -3.284156050025E-02 -2.318653078614E-01 -3.271334813047E-01
C3  7.908649672869E-02  3.500785586316E-01  3.971192565858E-01
C4 -7.908649672869E-02 -3.500785586316E-01 -3.971192565858E-01
C5  2.857913597131E-01  4.523535085498E-01  4.105777687859E-01
C6 -2.857913597131E-01 -4.523535085498E-01 -4.105777687859E-01
C7  4.376555283808E-01  4.365236702560E-01  3.525986371091E-01
C8 -4.376555283808E-01 -4.365236702560E-01 -3.525986371091E-01
C9  3.888395128554E-01  3.271612307264E-01  2.745393615755E-01
C10 -3.888395128554E-01 -3.271612307264E-01 -2.745393615755E-01
C11  1.823428861996E-01  2.197759632967E-01  2.621762108807E-01
C12 -1.823428861996E-01 -2.197759632967E-01 -2.621762108807E-01
C13  1.423967205141E-01  9.156408208026E-02  1.928188390397E-01
C14 -1.423967205141E-01 -9.156408208026E-02 -1.928188390397E-01
C15  2.884574941373E-01  8.408427467507E-02  1.278221551959E-01
C16 -2.884574941373E-01 -8.408427467507E-02 -1.278221551959E-01
C17  4.938411966971E-01  1.946922684399E-01  1.393613352878E-01
C18 -4.938411966971E-01 -1.946922684399E-01 -1.393613352878E-01
C19 -4.640581666591E-01  3.152666449527E-01  2.129994253670E-01
C20  4.640581666591E-01 -3.152666449527E-01 -2.129994253670E-01
C21  2.487143121035E-01 -4.330770340097E-02  5.738568265631E-02
C22 -2.487143121035E-01  4.330770340097E-02 -5.738568265631E-02
C23  3.968106957200E-01 -5.443281457031E-02 -5.981799262168E-03
C24 -3.968106957200E-01  5.443281457031E-02  5.981799262168E-03
C25 -3.541122858040E-01  1.758022861692E-01  7.862510552658E-02
C26  3.541122858040E-01 -1.758022861692E-01 -7.862510552658E-02
C27 -4.277891679788E-01 -9.659965408897E-02  3.061293861347E-01
C28  4.277891679788E-01  9.659965408897E-02 -3.061293861347E-01
C29 -3.926784927774E-01 -7.137390983416E-02  3.891325748591E-01
C30  3.926784927774E-01  7.137390983416E-02 -3.891325748591E-01
C31 -2.230940485681E-01 -1.493154246109E-01  4.256657922705E-01
C32  2.230940485681E-01  1.493154246109E-01 -4.256657922705E-01
C33 -9.301645154166E-02 -2.494935411675E-01  3.778444648330E-01
C34  9.301645154166E-02  2.494935411675E-01 -3.778444648330E-01
C35 -1.257257470404E-01 -2.833962175429E-01  2.904082817946E-01
C36  1.257257470404E-01  2.833962175429E-01 -2.904082817946E-01
C37 -3.037087946522E-01 -2.144661873760E-01  2.540737000360E-01
C38  3.037087946522E-01  2.144661873760E-01 -2.540737000360E-01
C39 -3.317842976453E-01 -2.380079544471E-01  1.691237494120E-01
C40  3.317842976453E-01  2.380079544471E-01 -1.691237494120E-01
C41 -1.992963194099E-01 -3.427995216736E-01  1.178364863405E-01
C42  1.992963194099E-01  3.427995216736E-01 -1.178364863405E-01
C43 -2.116284779836E-02 -4.116631292940E-01  1.546073292081E-01
C44  2.116284779836E-02  4.116631292940E-01 -1.546073292081E-01
C45  8.159737945967E-03 -3.814586777397E-01  2.409884426838E-01
C46 -8.159737945967E-03  3.814586777397E-01 -2.409884426838E-01
C47 -2.249394250874E-01 -3.660542787218E-01  3.215098846199E-02
C48  2.249394250874E-01  3.660542787218E-01 -3.215098846199E-02
C49 -9.099004348841E-02 -4.683468134402E-01 -1.830571136637E-02
C50  9.099004348841E-02  4.683468134402E-01  1.830571136637E-02
C51  1.178720941634E-01  4.948787655875E-01  1.043438993090E-01
C52 -1.178720941634E-01 -4.948787655875E-01 -1.043438993090E-01
H53 -1.053654064256E-01  1.378087914784E-01  3.221444363611E-01
H54  1.053654064256E-01 -1.378087914784E-01 -3.221444363611E-01
H55 -3.463878799556E-02  3.619406219202E-01  4.431849626854E-01
H56  3.463878799556E-02 -3.619406219202E-01 -4.431849626854E-01
H57  3.264250857462E-01 -4.770976722486E-01  4.699141533767E-01
H58 -3.264250857462E-01  4.770976722486E-01 -4.699141533767E-01
H59 -3.992629582595E-01  4.901556104994E-01  3.674460614635E-01
H60  3.992629582595E-01 -4.901556104994E-01 -3.674460614635E-01
H61  1.319942786253E-02 -2.082031426078E-02  1.926564541443E-01
H62 -1.319942786253E-02  2.082031426078E-02 -1.926564541443E-01
H63 -3.066467102310E-01  3.707339546713E-01  2.269413512907E-01
H64  3.066467102310E-01 -3.707339546713E-01 -2.269413512907E-01
H65  1.110055769243E-01 -1.426379679857E-01  5.417773872934E-02
H66 -1.110055769243E-01  1.426379679857E-01 -5.417773872934E-02
H67 -1.981729015521E-01  2.427005325621E-01  9.042708282597E-02
H68  1.981729015521E-01 -2.427005325621E-01 -9.042708282597E-02
H69  4.700770894456E-01 -6.875467834410E-03  2.772884766598E-01
H70 -4.700770894456E-01  6.875467834410E-03 -2.772884766598E-01
H71 -4.734350728022E-01  2.882433934600E-02  4.262268102333E-01
H72  4.734350728022E-01 -2.882433934600E-02 -4.262268102333E-01
H73 -1.959074138800E-01 -1.231018107262E-01  4.896060126991E-01
H74  1.959074138800E-01  1.231018107262E-01 -4.896060126991E-01
H75  4.429190097246E-02 -2.908167680842E-01  4.026272418269E-01
H76 -4.429190097246E-02  2.908167680842E-01 -4.026272418269E-01
H77 -4.382070037588E-01 -1.560742340179E-01  1.406186936664E-01
H78  4.382070037588E-01  1.560742340179E-01 -1.406186936664E-01
H79  1.309019980608E-01 -4.405617973114E-01  2.683199142031E-01
H80 -1.309019980608E-01  4.405617973114E-01 -2.683199142031E-01
H81 -3.392301377519E-01 -2.946698219235E-01  3.861205142992E-03
H82  3.392301377519E-01  2.946698219235E-01 -3.861205142992E-03
H83  2.475623361411E-01  4.459418238720E-01  1.312720576774E-01
H84 -2.475623361411E-01 -4.459418238720E-01 -1.312720576774E-01


#===END

data_OPT_STEP_7

_symmetry_space_group_name_H-M 'P 1'
_cell_length_a      6.41590596
_cell_length_b      8.04224734
_cell_length_c     16.79193137
_cell_angle_alpha  100.238662
_cell_angle_beta   90.812136
_cell_angle_gamma   95.650732

loop_
_atom_site_label
_atom_site_fract_x
_atom_site_fract_y
_atom_site_fract_z
C1  3.944402975058E-02  2.299379203725E-01  3.284595522873E-01
C2 -3.944402975058E-02 -2.299379203725E-01 -3.284595522873E-01
C3  8.455525576907E-02  3.438896958394E-01  3.993646414395E-01
C4 -8.455525576907E-02 -3.438896958394E-01 -3.993646414395E-01
C5  2.872547369623E-01  4.425250133878E-01  4.133268642199E-01
C6 -2.872547369623E-01 -4.425250133878E-01 -4.133268642199E-01
C7  4.347594454915E-01  4.297683405452E-01  3.544585881414E-01
C8 -4.347594454915E-01 -4.297683405452E-01 -3.544585881414E-01
C9  3.926810942752E-01  3.139378663217E-01  2.779744957703E-01
C10 -3.926810942752E-01 -3.139378663217E-01 -2.779744957703E-01
C11  1.881798712280E-01  2.142068634459E-01  2.641089175060E-01
C12 -1.881798712280E-01 -2.142068634459E-01 -2.641089175060E-01
C13  1.427110568321E-01  1.037253462939E-01  1.907091525833E-01
C14 -1.427110568321E-01 -1.037253462939E-01 -1.907091525833E-01
C15  2.929317947569E-01  8.209839491162E-02  1.288069820563E-01
C16 -2.929317947569E-01 -8.209839491162E-02 -1.288069820563E-01
C17  4.976325897111E-01  1.824297619691E-01  1.424182091747E-01
C18 -4.976325897111E-01 -1.824297619691E-01 -1.424182091747E-01
C19 -4.579709915527E-01  2.937875481570E-01  2.182551165555E-01
C20  4.579709915527E-01 -2.937875481570E-01 -2.182551165555E-01
C21  2.495483471222E-01 -3.256223912010E-02  5.537841906584E-02
C22 -2.495483471222E-01  3.256223912010E-02 -5.537841906584E-02
C23  3.974719017330E-01 -5.002445672524E-02 -6.836155851358E-03
C24 -3.974719017330E-01  5.002445672524E-02  6.836155851358E-03
C25 -3.549392329024E-01  1.664871544424E-01  8.059124431346E-02
C26  3.549392329024E-01 -1.664871544424E-01 -8.059124431346E-02
C27 -4.416995320230E-01 -1.164724187297E-01  3.071265803719E-01
C28  4.416995320230E-01  1.164724187297E-01 -3.071265803719E-01
C29 -3.947472402642E-01 -6.782317564906E-02  3.885534863103E-01
C30  3.947472402642E-01  6.782317564906E-02 -3.885534863103E-01
C31 -2.152273063413E-01 -1.251060971618E-01  4.242016974361E-01
C32  2.152273063413E-01  1.251060971618E-01 -4.242016974361E-01
C33 -8.207252061991E-02 -2.199666205584E-01  3.762858875134E-01
C34  8.207252061991E-02  2.199666205584E-01 -3.762858875134E-01
C35 -1.133227580801E-01 -2.570934745067E-01  2.888750834530E-01
C36  1.133227580801E-01  2.570934745067E-01 -2.888750834530E-01
C37 -2.976582987018E-01 -2.031351429949E-01  2.531656659385E-01
C38  2.976582987018E-01  2.031351429949E-01 -2.531656659385E-01
C39 -3.381225645635E-01 -2.496802016570E-01  1.698442408263E-01
C40  3.381225645635E-01  2.496802016570E-01 -1.698442408263E-01
C41 -1.959077448614E-01 -3.382608734274E-01  1.174934104946E-01
C42  1.959077448614E-01  3.382608734274E-01 -1.174934104946E-01
C43 -1.139253710964E-02 -3.924655218551E-01  1.534548594682E-01
C44  1.139253710964E-02  3.924655218551E-01 -1.534548594682E-01
C45  2.177256244192E-02 -3.523152385925E-01  2.393099760411E-01
C46 -2.177256244192E-02  3.523152385925E-01 -2.393099760411E-01
C47 -2.332867128048E-01 -3.827358340400E-01  3.326614612703E-02
C48  2.332867128048E-01  3.827358340400E-01 -3.326614612703E-02
C49 -9.265260415024E-02 -4.731692999081E-01 -1.806452037373E-02
C50  9.265260415024E-02  4.731692999081E-01  1.806452037373E-02
C51  1.261049829900E-01 -4.870159324610E-01  1.032456109257E-01
C52 -1.261049829900E-01  4.870159324610E-01 -1.032456109257E-01
H53 -9.868011892463E-02  1.437728900195E-01  3.218959773549E-01
H54  9.868011892463E-02 -1.437728900195E-01 -3.218959773549E-01
H55 -2.747544415336E-02  3.558687059872E-01  4.455049988312E-01
H56  2.747544415336E-02 -3.558687059872E-01 -4.455049988312E-01
H57  3.251259274667E-01 -4.845288030320E-01  4.719411675244E-01
H58 -3.251259274667E-01  4.845288030320E-01 -4.719411675244E-01
H59 -4.117908743223E-01  4.933202545739E-01  3.667686223600E-01
H60  4.117908743223E-01 -4.933202545739E-01 -3.667686223600E-01
H61 -2.091485261445E-03  3.149131185675E-02  1.814081936549E-01
H62  2.091485261445E-03 -3.149131185675E-02 -1.814081936549E-01
H63 -3.036345728863E-01  3.492073735513E-01  2.321092858677E-01
H64  3.036345728863E-01 -3.492073735513E-01 -2.321092858677E-01
H65  1.073166212871E-01 -1.141328897968E-01  4.822294022097E-02
H66 -1.073166212871E-01  1.141328897968E-01 -4.822294022097E-02
H67 -2.055895053508E-01  2.381823227061E-01  9.088014306928E-02
H68  2.055895053508E-01 -2.381823227061E-01 -9.088014306928E-02
H69  4.160304512081E-01 -9.114202856171E-02  2.825614071540E-01
H70 -4.160304512081E-01  9.114202856171E-02 -2.825614071540E-01
H71 -4.851764139352E-01  1.800689743829E-02  4.258886073644E-01
H72  4.851764139352E-01 -1.800689743829E-02 -4.258886073644E-01
H73 -1.901641115861E-01 -9.894770108649E-02  4.882053705572E-01
H74  1.901641115861E-01  9.894770108649E-02 -4.882053705572E-01
H75  4.941833524474E-02 -2.666587333104E-01  4.016941005281E-01
H76 -4.941833524474E-02  2.666587333104E-01 -4.016941005281E-01
H77 -4.746327114988E-01 -2.172394490958E-01  1.447681538719E-01
H78  4.746327114988E-01  2.172394490958E-01 -1.447681538719E-01
H79  1.476581819165E-01 -4.030690493965E-01  2.661901676502E-01
H80 -1.476581819165E-01  4.030690493965E-01 -2.661901676502E-01
H81 -3.660116459253E-01 -3.428187064087E-01  7.169967531380E-03
H82  3.660116459253E-01  3.428187064087E-01 -7.169967531380E-03
H83  2.556605216091E-01  4.669045438552E-01  1.300146520124E-01
H84 -2.556605216091E-01 -4.669045438552E-01 -1.300146520124E-01


#===END

data_OPT_STEP_8

_symmetry_space_group_name_H-M 'P 1'
_cell_length_a      6.39152026
_cell_length_b      8.03578563
_cell_length_c     16.78762469
_cell_angle_alpha  100.008989
_cell_angle_beta   90.783088
_cell_angle_gamma   95.379850

loop_
_atom_site_label
_atom_site_fract_x
_atom_site_fract_y
_atom_site_fract_z
C1  3.361216062422E-02  2.341200504241E-01  3.270554194404E-01
C2 -3.361216062422E-02 -2.341200504241E-01 -3.270554194404E-01
C3  8.159556996012E-02  3.416561781402E-01  3.992245015896E-01
C4 -8.159556996012E-02 -3.416561781402E-01 -3.992245015896E-01
C5  2.862681407000E-01  4.372379201677E-01  4.136831266484E-01
C6 -2.862681407000E-01 -4.372379201677E-01 -4.136831266484E-01
C7  4.361316036235E-01  4.217899630428E-01  3.554991322729E-01
C8 -4.361316036235E-01 -4.217899630428E-01 -3.554991322729E-01
C9  3.913104572430E-01  3.119707382902E-01  2.778038830426E-01
C10 -3.913104572430E-01 -3.119707382902E-01 -2.778038830426E-01
C11  1.843129505695E-01  2.161746203007E-01  2.632130774959E-01
C12 -1.843129505695E-01 -2.161746203007E-01 -2.632130774959E-01
C13  1.391418216662E-01  1.060651569683E-01  1.899354262140E-01
C14 -1.391418216662E-01 -1.060651569683E-01 -1.899354262140E-01
C15  2.896036934349E-01  8.560719623870E-02  1.277504744366E-01
C16 -2.896036934349E-01 -8.560719623870E-02 -1.277504744366E-01
C17  4.967899333947E-01  1.818886328306E-01  1.421576971768E-01
C18 -4.967899333947E-01 -1.818886328306E-01 -1.421576971768E-01
C19 -4.590223012969E-01  2.931390226022E-01  2.178572450095E-01
C20  4.590223012969E-01 -2.931390226022E-01 -2.178572450095E-01
C21  2.456738495325E-01 -2.709459584016E-02  5.408426394812E-02
C22 -2.456738495325E-01  2.709459584016E-02 -5.408426394812E-02
C23  3.965036998592E-01 -4.852444762509E-02 -7.105616452475E-03
C24 -3.965036998592E-01  4.852444762509E-02  7.105616452475E-03
C25 -3.529645733608E-01  1.622973397487E-01  8.131280088554E-02
C26  3.529645733608E-01 -1.622973397487E-01 -8.131280088554E-02
C27 -4.418463998682E-01 -1.135706988103E-01  3.069700578411E-01
C28  4.418463998682E-01  1.135706988103E-01 -3.069700578411E-01
C29 -3.927571214508E-01 -6.304851551879E-02  3.881763969664E-01
C30  3.927571214508E-01  6.304851551879E-02 -3.881763969664E-01
C31 -2.080899208054E-01 -1.148099307734E-01  4.232852413880E-01
C32  2.080899208054E-01  1.148099307734E-01 -4.232852413880E-01
C33 -7.732058468412E-02 -2.139722507830E-01  3.755456493025E-01
C34  7.732058468412E-02  2.139722507830E-01 -3.755456493025E-01
C35 -1.153599573611E-01 -2.601662754125E-01  2.888742464003E-01
C36  1.153599573611E-01  2.601662754125E-01 -2.888742464003E-01
C37 -3.041733923941E-01 -2.105986913196E-01  2.535995841775E-01
C38  3.041733923941E-01  2.105986913196E-01 -2.535995841775E-01
C39 -3.462515410120E-01 -2.586561820868E-01  1.704808148764E-01
C40  3.462515410120E-01  2.586561820868E-01 -1.704808148764E-01
C41 -2.016100754771E-01 -3.449202880417E-01  1.179156345797E-01
C42  2.016100754771E-01  3.449202880417E-01 -1.179156345797E-01
C43 -1.420642130261E-02 -3.969962348282E-01  1.535991181009E-01
C44  1.420642130261E-02  3.969962348282E-01 -1.535991181009E-01
C45  2.015816043022E-02 -3.557820592261E-01  2.393023180826E-01
C46 -2.015816043022E-02  3.557820592261E-01 -2.393023180826E-01
C47 -2.365135271779E-01 -3.851260638172E-01  3.348311300943E-02
C48  2.365135271779E-01  3.851260638172E-01 -3.348311300943E-02
C49 -9.331951977563E-02 -4.730867087104E-01 -1.799625498348E-02
C50  9.331951977563E-02  4.730867087104E-01  1.799625498348E-02
C51  1.261025812699E-01 -4.886179611920E-01  1.031961800430E-01
C52 -1.261025812699E-01  4.886179611920E-01 -1.031961800430E-01
H53 -1.083125521989E-01  1.528599555960E-01  3.192453258312E-01
H54  1.083125521989E-01 -1.528599555960E-01 -3.192453258312E-01
H55 -3.156130811005E-02  3.529741400537E-01  4.459248875950E-01
H56  3.156130811005E-02 -3.529741400537E-01 -4.459248875950E-01
H57  3.234898925202E-01 -4.879372783141E-01  4.723042243472E-01
H58 -3.234898925202E-01  4.879372783141E-01 -4.723042243472E-01
H59 -4.081683835054E-01  4.844381113093E-01  3.680150518636E-01
H60  4.081683835054E-01 -4.844381113093E-01 -3.680150518636E-01
H61 -8.039209629360E-03  3.545271035343E-02  1.801575279195E-01
H62  8.039209629360E-03 -3.545271035343E-02 -1.801575279195E-01
H63 -3.050548923697E-01  3.520106962826E-01  2.308948052909E-01
H64  3.050548923697E-01 -3.520106962826E-01 -2.308948052909E-01
H65  9.985359440229E-02 -1.045742722955E-01  4.585807148931E-02
H66 -9.985359440229E-02  1.045742722955E-01 -4.585807148931E-02
H67 -2.015910437447E-01  2.336092320228E-01  9.178612975142E-02
H68  2.015910437447E-01 -2.336092320228E-01 -9.178612975142E-02
H69  4.138526577906E-01 -8.824099407102E-02  2.823363173747E-01
H70 -4.138526577906E-01  8.824099407102E-02 -2.823363173747E-01
H71 -4.858391049405E-01  2.076581749156E-02  4.260451914751E-01
H72  4.858391049405E-01 -2.076581749156E-02 -4.260451914751E-01
H73 -1.800143945218E-01 -8.501560131288E-02  4.875287860501E-01
H74  1.800143945218E-01  8.501560131288E-02 -4.875287860501E-01
H75  5.445173245739E-02 -2.639534637013E-01  4.009815305821E-01
H76 -5.445173245739E-02  2.639534637013E-01 -4.009815305821E-01
H77 -4.885372651578E-01 -2.316897128545E-01  1.456843409662E-01
H78  4.885372651578E-01  2.316897128545E-01 -1.456843409662E-01
H79  1.486270270101E-01 -4.056803728527E-01  2.661562516610E-01
H80 -1.486270270101E-01  4.056803728527E-01 -2.661562516610E-01
H81 -3.713493240159E-01 -3.453289601833E-01  7.257531719589E-03
H82  3.713493240159E-01  3.453289601833E-01 -7.257531719589E-03
H83  2.569036120428E-01  4.640622948650E-01  1.301657843596E-01
H84 -2.569036120428E-01 -4.640622948650E-01 -1.301657843596E-01


#===END

data_OPT_STEP_9

_symmetry_space_group_name_H-M 'P 1'
_cell_length_a      6.40807431
_cell_length_b      7.99662418
_cell_length_c     16.89040534
_cell_angle_alpha  100.241782
_cell_angle_beta   90.394892
_cell_angle_gamma   95.587332

loop_
_atom_site_label
_atom_site_fract_x
_atom_site_fract_y
_atom_site_fract_z
C1  3.801862592934E-02  2.236298856508E-01  3.287346630078E-01
C2 -3.801862592934E-02 -2.236298856508E-01 -3.287346630078E-01
C3  8.460890325854E-02  3.342513901320E-01  4.000271359063E-01
C4 -8.460890325854E-02 -3.342513901320E-01 -4.000271359063E-01
C5  2.881204858146E-01  4.325326347916E-01  4.137701139103E-01
C6 -2.881204858146E-01 -4.325326347916E-01 -4.137701139103E-01
C7  4.354711600162E-01  4.222713428118E-01  3.545320782447E-01
C8 -4.354711600162E-01 -4.222713428118E-01 -3.545320782447E-01
C9  3.918153555220E-01  3.095364224798E-01  2.776334397963E-01
C10 -3.918153555220E-01 -3.095364224798E-01 -2.776334397963E-01
C11  1.909022383042E-01  2.020213679259E-01  2.658875416147E-01
C12 -1.909022383042E-01 -2.020213679259E-01 -2.658875416147E-01
C13  1.483658135406E-01  8.680949452962E-02  1.939809920263E-01
C14 -1.483658135406E-01 -8.680949452962E-02 -1.939809920263E-01
C15  2.977500665130E-01  6.921951969102E-02  1.312926849712E-01
C16 -2.977500665130E-01 -6.921951969102E-02 -1.312926849712E-01
C17  4.957263771876E-01  1.824977189178E-01  1.416023917456E-01
C18 -4.957263771876E-01 -1.824977189178E-01 -1.416023917456E-01
C19 -4.627525668184E-01  2.994863988186E-01  2.158539985901E-01
C20  4.627525668184E-01 -2.994863988186E-01 -2.158539985901E-01
C21  2.558873247800E-01 -4.713775094648E-02  5.871413853260E-02
C22 -2.558873247800E-01  4.713775094648E-02 -5.871413853260E-02
C23  4.018871040504E-01 -5.834312634645E-02 -4.728271037628E-03
C24 -4.018871040504E-01  5.834312634645E-02  4.728271037628E-03
C25 -3.589627754117E-01  1.731744950067E-01  7.855228420771E-02
C26  3.589627754117E-01 -1.731744950067E-01 -7.855228420771E-02
C27 -4.356882820553E-01 -1.037689353069E-01  3.066021598593E-01
C28  4.356882820553E-01  1.037689353069E-01 -3.066021598593E-01
C29 -3.889805998022E-01 -5.766437055380E-02  3.875773923910E-01
C30  3.889805998022E-01  5.766437055380E-02 -3.875773923910E-01
C31 -2.097621753758E-01 -1.170217074175E-01  4.223297277844E-01
C32  2.097621753758E-01  1.170217074175E-01 -4.223297277844E-01
C33 -7.690321692272E-02 -2.119727054952E-01  3.739569912797E-01
C34  7.690321692272E-02  2.119727054952E-01 -3.739569912797E-01
C35 -1.122963353207E-01 -2.540750371004E-01  2.874737492626E-01
C36  1.122963353207E-01  2.540750371004E-01 -2.874737492626E-01
C37 -2.962551534058E-01 -1.976374812579E-01  2.525622019179E-01
C38  2.962551534058E-01  1.976374812579E-01 -2.525622019179E-01
C39 -3.345348336742E-01 -2.402380141038E-01  1.695604619594E-01
C40  3.345348336742E-01  2.402380141038E-01 -1.695604619594E-01
C41 -1.940496461807E-01 -3.327625711670E-01  1.171483272820E-01
C42  1.940496461807E-01  3.327625711670E-01 -1.171483272820E-01
C43 -1.179570982125E-02 -3.919849095717E-01  1.525594171296E-01
C44  1.179570982125E-02  3.919849095717E-01 -1.525594171296E-01
C45  2.339198479135E-02 -3.491113258337E-01  2.376934524930E-01
C46 -2.339198479135E-02  3.491113258337E-01 -2.376934524930E-01
C47 -2.286180843820E-01 -3.735120275694E-01  3.319578963867E-02
C48  2.286180843820E-01  3.735120275694E-01 -3.319578963867E-02
C49 -8.966084933580E-02 -4.680667387002E-01 -1.794679800854E-02
C50  8.966084933580E-02  4.680667387002E-01  1.794679800854E-02
C51  1.236983282381E-01 -4.907304670210E-01  1.024842156900E-01
C52 -1.236983282381E-01  4.907304670210E-01 -1.024842156900E-01
H53 -1.082550402363E-01  1.452099383011E-01  3.196457377047E-01
H54  1.082550402363E-01 -1.452099383011E-01 -3.196457377047E-01
H55 -3.044539742959E-02  3.453367563810E-01  4.476476016298E-01
H56  3.044539742959E-02 -3.453367563810E-01 -4.476476016298E-01
H57  3.252680603200E-01 -4.893547913732E-01  4.728373521761E-01
H58 -3.252680603200E-01  4.893547913732E-01 -4.728373521761E-01
H59 -4.115860758487E-01  4.967165475382E-01  3.644995864771E-01
H60  4.115860758487E-01 -4.967165475382E-01 -3.644995864771E-01
H61 -2.214085250046E-03  1.669698655544E-02  1.835452667904E-01
H62  2.214085250046E-03 -1.669698655544E-02 -1.835452667904E-01
H63 -3.168994737743E-01  3.790610994620E-01  2.242514488483E-01
H64  3.168994737743E-01 -3.790610994620E-01 -2.242514488483E-01
H65  1.095444282759E-01 -1.294283735145E-01  5.114345964974E-02
H66 -1.095444282759E-01  1.294283735145E-01 -5.114345964974E-02
H67 -2.111418711850E-01  2.579589962048E-01  8.625185926127E-02
H68  2.111418711850E-01 -2.579589962048E-01 -8.625185926127E-02
H69  4.159006690595E-01 -8.112651871092E-02  2.823980875811E-01
H70 -4.159006690595E-01  8.112651871092E-02 -2.823980875811E-01
H71 -4.827884027398E-01  2.731613329764E-02  4.264287183488E-01
H72  4.827884027398E-01 -2.731613329764E-02 -4.264287183488E-01
H73 -1.829214734086E-01 -8.949864943227E-02  4.876258109302E-01
H74  1.829214734086E-01  8.949864943227E-02 -4.876258109302E-01
H75  5.422198035759E-02 -2.672917461218E-01  3.991932069567E-01
H76 -5.422198035759E-02  2.672917461218E-01 -3.991932069567E-01
H77 -4.829638573264E-01 -2.189888486003E-01  1.452395948144E-01
H78  4.829638573264E-01  2.189888486003E-01 -1.452395948144E-01
H79  1.544046119919E-01 -3.985181465673E-01  2.643383046777E-01
H80 -1.544046119919E-01  3.985181465673E-01 -2.643383046777E-01
H81 -3.646005647353E-01 -3.321569473474E-01  6.841645819248E-03
H82  3.646005647353E-01  3.321569473474E-01 -6.841645819248E-03
H83  2.534071505345E-01  4.569434761486E-01  1.297642483577E-01
H84 -2.534071505345E-01 -4.569434761486E-01 -1.297642483577E-01


#===END

data_OPT_STEP_10

_symmetry_space_group_name_H-M 'P 1'
_cell_length_a      6.46591680
_cell_length_b      7.99296336
_cell_length_c     16.87924625
_cell_angle_alpha  100.032926
_cell_angle_beta   90.816301
_cell_angle_gamma   94.681765

loop_
_atom_site_label
_atom_site_fract_x
_atom_site_fract_y
_atom_site_fract_z
C1  3.958982665012E-02  2.334759923043E-01  3.263750577515E-01
C2 -3.958982665012E-02 -2.334759923043E-01 -3.263750577515E-01
C3  8.785530344922E-02  3.390353360779E-01  3.987435861642E-01
C4 -8.785530344922E-02 -3.390353360779E-01 -3.987435861642E-01
C5  2.897253204705E-01  4.340503464932E-01  4.130744767873E-01
C6 -2.897253204705E-01 -4.340503464932E-01 -4.130744767873E-01
C7  4.362955260799E-01  4.215713358174E-01  3.543652355811E-01
C8 -4.362955260799E-01 -4.215713358174E-01 -3.543652355811E-01
C9  3.931375096987E-01  3.098025629826E-01  2.773316197606E-01
C10 -3.931375096987E-01 -3.098025629826E-01 -2.773316197606E-01
C11  1.924404950050E-01  2.081841475017E-01  2.643783169766E-01
C12 -1.924404950050E-01 -2.081841475017E-01 -2.643783169766E-01
C13  1.463661983838E-01  1.010255263588E-01  1.906550210353E-01
C14 -1.463661983838E-01 -1.010255263588E-01 -1.906550210353E-01
C15  2.974929246563E-01  7.634180008415E-02  1.296117776761E-01
C16 -2.974929246563E-01 -7.634180008415E-02 -1.296117776761E-01
C17  4.979764360780E-01  1.783329297188E-01  1.424600624360E-01
C18 -4.979764360780E-01 -1.783329297188E-01 -1.424600624360E-01
C19 -4.617136636285E-01  2.964081798140E-01  2.163495812126E-01
C20  4.617136636285E-01 -2.964081798140E-01 -2.163495812126E-01
C21  2.527021721883E-01 -3.334047543292E-02  5.552693599291E-02
C22 -2.527021721883E-01  3.334047543292E-02 -5.552693599291E-02
C23  3.997882434206E-01 -5.112958512903E-02 -6.395795346836E-03
C24 -3.997882434206E-01  5.112958512903E-02  6.395795346836E-03
C25 -3.541055142822E-01  1.594705157070E-01  8.169044949085E-02
C26  3.541055142822E-01 -1.594705157070E-01 -8.169044949085E-02
C27 -4.496736746223E-01 -1.201301886241E-01  3.060443750038E-01
C28  4.496736746223E-01  1.201301886241E-01 -3.060443750038E-01
C29 -4.017922139429E-01 -7.271081526856E-02  3.869621206802E-01
C30  4.017922139429E-01  7.271081526856E-02 -3.869621206802E-01
C31 -2.220388453733E-01 -1.312037550148E-01  4.222399143685E-01
C32  2.220388453733E-01  1.312037550148E-01 -4.222399143685E-01
C33 -8.625390125724E-02 -2.219749285307E-01  3.741761560359E-01
C34  8.625390125724E-02  2.219749285307E-01 -3.741761560359E-01
C35 -1.183066554802E-01 -2.602128995987E-01  2.873290563606E-01
C36  1.183066554802E-01  2.602128995987E-01 -2.873290563606E-01
C37 -3.067581263524E-01 -2.100943838112E-01  2.522111922191E-01
C38  3.067581263524E-01  2.100943838112E-01 -2.522111922191E-01
C39 -3.444754804299E-01 -2.524165998651E-01  1.690934745776E-01
C40  3.444754804299E-01  2.524165998651E-01 -1.690934745776E-01
C41 -2.030961133315E-01 -3.445513731094E-01  1.171961351797E-01
C42  2.030961133315E-01  3.445513731094E-01 -1.171961351797E-01
C43 -1.227302024972E-02 -3.911099632122E-01  1.524168278941E-01
C44  1.227302024972E-02  3.911099632122E-01 -1.524168278941E-01
C45  2.438602327772E-02 -3.455154650913E-01  2.374756764594E-01
C46 -2.438602327772E-02  3.455154650913E-01 -2.374756764594E-01
C47 -2.393165897061E-01 -3.886492895765E-01  3.332708373454E-02
C48  2.393165897061E-01  3.886492895765E-01 -3.332708373454E-02
C49 -9.487811917235E-02 -4.758306462562E-01 -1.773721138725E-02
C50  9.487811917235E-02  4.758306462562E-01  1.773721138725E-02
C51  1.304730141286E-01 -4.796086964509E-01  1.021636960136E-01
C52 -1.304730141286E-01  4.796086964509E-01 -1.021636960136E-01
H53 -1.126205396795E-01  1.654182587591E-01  3.143667584400E-01
H54  1.126205396795E-01 -1.654182587591E-01 -3.143667584400E-01
H55 -2.732255485086E-02  3.495879561234E-01  4.472046379037E-01
H56  2.732255485086E-02 -3.495879561234E-01 -4.472046379037E-01
H57  3.272183168255E-01 -4.870994533526E-01  4.729663046792E-01
H58 -3.272183168255E-01  4.870994533526E-01 -4.729663046792E-01
H59 -4.103946652085E-01  4.966395684792E-01  3.643334785668E-01
H60  4.103946652085E-01 -4.966395684792E-01 -3.643334785668E-01
H61 -7.886306760196E-03  3.606499102226E-02  1.785874702135E-01
H62  7.886306760196E-03 -3.606499102226E-02 -1.785874702135E-01
H63 -3.199701440289E-01  3.842362032540E-01  2.228875335687E-01
H64  3.199701440289E-01 -3.842362032540E-01 -2.228875335687E-01
H65  1.006970678901E-01 -1.061908095162E-01  4.534467896840E-02
H66 -1.006970678901E-01  1.061908095162E-01 -4.534467896840E-02
H67 -2.004915762651E-01  2.346005120593E-01  9.199160324375E-02
H68  2.004915762651E-01 -2.346005120593E-01 -9.199160324375E-02
H69  4.086476209595E-01 -8.415384506655E-02  2.802833508042E-01
H70 -4.086476209595E-01  8.415384506655E-02 -2.802833508042E-01
H71 -4.932965932682E-01  1.795550266993E-02  4.259860554971E-01
H72  4.932965932682E-01 -1.795550266993E-02 -4.259860554971E-01
H73 -1.904560522069E-01 -9.630075458241E-02  4.881072065181E-01
H74  1.904560522069E-01  9.630075458241E-02 -4.881072065181E-01
H75  4.706458291171E-02 -2.761019583923E-01  4.001140170447E-01
H76 -4.706458291171E-02  2.761019583923E-01 -4.001140170447E-01
H77 -4.925346476395E-01 -2.273948805093E-01  1.437162044191E-01
H78  4.925346476395E-01  2.273948805093E-01 -1.437162044191E-01
H79  1.642601052564E-01 -3.847750898517E-01  2.641093189336E-01
H80 -1.642601052564E-01  3.847750898517E-01 -2.641093189336E-01
H81 -3.791524310536E-01 -3.498381094026E-01  6.321288118905E-03
H82  3.791524310536E-01  3.498381094026E-01 -6.321288118905E-03
H83  2.705842154221E-01  4.806323047002E-01  1.293352051142E-01
H84 -2.705842154221E-01 -4.806323047002E-01 -1.293352051142E-01


#===END

data_OPT_STEP_11

_symmetry_space_group_name_H-M 'P 1'
_cell_length_a      6.39032044
_cell_length_b      7.82288887
_cell_length_c     16.82398508
_cell_angle_alpha   99.319337
_cell_angle_beta   90.666559
_cell_angle_gamma   95.513892

loop_
_atom_site_label
_atom_site_fract_x
_atom_site_fract_y
_atom_site_fract_z
C1  3.140638100550E-02  2.235487863294E-01  3.265928176390E-01
C2 -3.140638100550E-02 -2.235487863294E-01 -3.265928176390E-01
C3  8.139964218342E-02  3.274836062784E-01  3.996861036144E-01
C4 -8.139964218342E-02 -3.274836062784E-01 -3.996861036144E-01
C5  2.851122891319E-01  4.280659250791E-01  4.138160166208E-01
C6 -2.851122891319E-01 -4.280659250791E-01 -4.138160166208E-01
C7  4.342967067665E-01  4.180636773284E-01  3.553005137067E-01
C8 -4.342967067665E-01 -4.180636773284E-01 -3.553005137067E-01
C9  3.909326778063E-01  3.060012509407E-01  2.780344780438E-01
C10 -3.909326778063E-01 -3.060012509407E-01 -2.780344780438E-01
C11  1.853815328343E-01  2.041930315767E-01  2.639546180707E-01
C12 -1.853815328343E-01 -2.041930315767E-01 -2.639546180707E-01
C13  1.351628473610E-01  1.034655182126E-01  1.883334430387E-01
C14 -1.351628473610E-01 -1.034655182126E-01 -1.883334430387E-01
C15  2.901314650953E-01  7.940979765300E-02  1.278820871630E-01
C16 -2.901314650953E-01 -7.940979765300E-02 -1.278820871630E-01
C17  4.972706061392E-01  1.782692349269E-01  1.427025635585E-01
C18 -4.972706061392E-01 -1.782692349269E-01 -1.427025635585E-01
C19 -4.593094659762E-01  2.913353155939E-01  2.181267601123E-01
C20  4.593094659762E-01 -2.913353155939E-01 -2.181267601123E-01
C21  2.431433525123E-01 -2.741296481892E-02  5.271445293333E-02
C22 -2.431433525123E-01  2.741296481892E-02 -5.271445293333E-02
C23  3.962125626765E-01 -4.907037871595E-02 -7.491469700595E-03
C24 -3.962125626765E-01  4.907037871595E-02  7.491469700595E-03
C25 -3.516091273934E-01  1.604193994017E-01  8.237146671864E-02
C26  3.516091273934E-01 -1.604193994017E-01 -8.237146671864E-02
C27 -4.481616770359E-01 -1.105891100582E-01  3.048421146981E-01
C28  4.481616770359E-01  1.105891100582E-01 -3.048421146981E-01
C29 -4.014128943867E-01 -6.534203095367E-02  3.859391344154E-01
C30  4.014128943867E-01  6.534203095367E-02 -3.859391344154E-01
C31 -2.147058980763E-01 -1.170110718105E-01  4.210846996336E-01
C32  2.147058980763E-01  1.170110718105E-01 -4.210846996336E-01
C33 -7.817816932909E-02 -2.095905186730E-01  3.734799566743E-01
C34  7.817816932909E-02  2.095905186730E-01 -3.734799566743E-01
C35 -1.144999724223E-01 -2.541555156876E-01  2.869796148010E-01
C36  1.144999724223E-01  2.541555156876E-01 -2.869796148010E-01
C37 -3.055096365129E-01 -2.041813369872E-01  2.515556595562E-01
C38  3.055096365129E-01  2.041813369872E-01 -2.515556595562E-01
C39 -3.489357285254E-01 -2.540474434079E-01  1.689005198527E-01
C40  3.489357285254E-01  2.540474434079E-01 -1.689005198527E-01
C41 -2.034154944465E-01 -3.425153085646E-01  1.169614578245E-01
C42  2.034154944465E-01  3.425153085646E-01 -1.169614578245E-01
C43 -9.329293906032E-03 -3.878800185668E-01  1.523357927067E-01
C44  9.329293906032E-03  3.878800185668E-01 -1.523357927067E-01
C45  2.714827458111E-02 -3.435971915507E-01  2.375973938960E-01
C46 -2.714827458111E-02  3.435971915507E-01 -2.375973938960E-01
C47 -2.430774326191E-01 -3.904250427149E-01  3.326553061907E-02
C48  2.430774326191E-01  3.904250427149E-01 -3.326553061907E-02
C49 -9.673432913564E-02 -4.768194877097E-01 -1.775769939702E-02
C50  9.673432913564E-02  4.768194877097E-01  1.775769939702E-02
C51  1.343248011373E-01 -4.769917312005E-01  1.021727418115E-01
C52 -1.343248011373E-01  4.769917312005E-01 -1.021727418115E-01
H53 -1.262825336788E-01  1.561875335847E-01  3.133627988535E-01
H54  1.262825336788E-01 -1.561875335847E-01 -3.133627988535E-01
H55 -3.646936026371E-02  3.364140415721E-01  4.483767342174E-01
H56  3.646936026371E-02 -3.364140415721E-01 -4.483767342174E-01
H57  3.229722021547E-01 -4.905611500609E-01  4.738456701802E-01
H58 -3.229722021547E-01  4.905611500609E-01 -4.738456701802E-01
H59 -4.092341629455E-01  4.956274499225E-01  3.656136116199E-01
H60  4.092341629455E-01 -4.956274499225E-01 -3.656136116199E-01
H61 -2.461732231253E-02  3.945738638149E-02  1.750048669598E-01
H62  2.461732231253E-02 -3.945738638149E-02 -1.750048669598E-01
H63 -3.128659747058E-01  3.792415871812E-01  2.256165851125E-01
H64  3.128659747058E-01 -3.792415871812E-01 -2.256165851125E-01
H65  8.524679804229E-02 -9.826256026544E-02  4.099026606308E-02
H66 -8.524679804229E-02  9.826256026544E-02 -4.099026606308E-02
H67 -1.934845631869E-01  2.353873455087E-01  9.362174301716E-02
H68  1.934845631869E-01 -2.353873455087E-01 -9.362174301716E-02
H69  4.148332224430E-01 -6.372204893801E-02  2.779582959838E-01
H70 -4.148332224430E-01  6.372204893801E-02 -2.779582959838E-01
H71  4.996371662417E-01  1.762028091653E-02  4.256671502418E-01
H72 -4.996371662417E-01 -1.762028091653E-02 -4.256671502418E-01
H73 -1.811167587014E-01 -7.926347189259E-02  4.873192364083E-01
H74  1.811167587014E-01  7.926347189259E-02 -4.873192364083E-01
H75  5.912695445673E-02 -2.598930457035E-01  3.999255670036E-01
H76 -5.912695445673E-02  2.598930457035E-01 -3.999255670036E-01
H77 -4.951488577536E-01 -2.223136071044E-01  1.426789587545E-01
H78  4.951488577536E-01  2.223136071044E-01 -1.426789587545E-01
H79  1.706426480951E-01 -3.815441301153E-01  2.644673261066E-01
H80 -1.706426480951E-01  3.815441301153E-01 -2.644673261066E-01
H81 -3.872357837356E-01 -3.538710363625E-01  6.108367654377E-03
H82  3.872357837356E-01  3.538710363625E-01 -6.108367654377E-03
H83  2.807349711450E-01  4.886874070117E-01  1.292333675308E-01
H84 -2.807349711450E-01 -4.886874070117E-01 -1.292333675308E-01


#===END

data_OPT_STEP_12

_symmetry_space_group_name_H-M 'P 1'
_cell_length_a      6.45131997
_cell_length_b      7.78490546
_cell_length_c     16.74685881
_cell_angle_alpha   98.767444
_cell_angle_beta   91.247739
_cell_angle_gamma   94.019668

loop_
_atom_site_label
_atom_site_fract_x
_atom_site_fract_y
_atom_site_fract_z
C1  3.509502486739E-02  2.408508085497E-01  3.248794664605E-01
C2 -3.509502486739E-02 -2.408508085497E-01 -3.248794664605E-01
C3  8.719400333118E-02  3.399596745639E-01  3.988335349509E-01
C4 -8.719400333118E-02 -3.399596745639E-01 -3.988335349509E-01
C5  2.892657531180E-01  4.345875480180E-01  4.132869787149E-01
C6 -2.892657531180E-01 -4.345875480180E-01 -4.132869787149E-01
C7  4.355256485838E-01  4.228894671986E-01  3.545289889867E-01
C8 -4.355256485838E-01 -4.228894671986E-01 -3.545289889867E-01
C9  3.899421757635E-01  3.163403245342E-01  2.761973509372E-01
C10 -3.899421757635E-01 -3.163403245342E-01 -2.761973509372E-01
C11  1.855837756628E-01  2.208933023739E-01  2.616507428805E-01
C12 -1.855837756628E-01 -2.208933023739E-01 -2.616507428805E-01
C13  1.395508964999E-01  1.133437474069E-01  1.878996750740E-01
C14 -1.395508964999E-01 -1.133437474069E-01 -1.878996750740E-01
C15  2.901495509014E-01  9.019454650705E-02  1.264466565910E-01
C16 -2.901495509014E-01 -9.019454650705E-02 -1.264466565910E-01
C17  4.928861166096E-01  1.887168943442E-01  1.402531839056E-01
C18 -4.928861166096E-01 -1.887168943442E-01 -1.402531839056E-01
C19 -4.624341608506E-01  2.980934062059E-01  2.163561585364E-01
C20  4.624341608506E-01 -2.980934062059E-01 -2.163561585364E-01
C21  2.476496123270E-01 -2.411791301930E-02  5.330318771831E-02
C22 -2.476496123270E-01  2.411791301930E-02 -5.330318771831E-02
C23  3.992377412803E-01 -5.029784772638E-02 -6.594882545351E-03
C24 -3.992377412803E-01  5.029784772638E-02  6.594882545351E-03
C25 -3.596229747976E-01  1.699052021023E-01  7.922216553636E-02
C26  3.596229747976E-01 -1.699052021023E-01 -7.922216553636E-02
C27 -4.567064480524E-01 -1.196431905615E-01  3.039955808820E-01
C28  4.567064480524E-01  1.196431905615E-01 -3.039955808820E-01
C29 -4.120521057858E-01 -7.472509088108E-02  3.853658856376E-01
C30  4.120521057858E-01  7.472509088108E-02 -3.853658856376E-01
C31 -2.270076284836E-01 -1.293160095498E-01  4.217816713986E-01
C32  2.270076284836E-01  1.293160095498E-01 -4.217816713986E-01
C33 -8.857261139908E-02 -2.223062609242E-01  3.749843190757E-01
C34  8.857261139908E-02  2.223062609242E-01 -3.749843190757E-01
C35 -1.251527263619E-01 -2.696617503384E-01  2.883213806894E-01
C36  1.251527263619E-01  2.696617503384E-01 -2.883213806894E-01
C37 -3.133981518249E-01 -2.148861061904E-01  2.516792318625E-01
C38  3.133981518249E-01  2.148861061904E-01 -2.516792318625E-01
C39 -3.543843502155E-01 -2.617759271558E-01  1.686523649673E-01
C40  3.543843502155E-01  2.617759271558E-01 -1.686523649673E-01
C41 -2.031805705967E-01 -3.426070291430E-01  1.167072084482E-01
C42  2.031805705967E-01  3.426070291430E-01 -1.167072084482E-01
C43 -1.445751458875E-02 -3.968954956373E-01  1.533233964901E-01
C44  1.445751458875E-02  3.968954956373E-01 -1.533233964901E-01
C45  1.679364946429E-02 -3.603186856880E-01  2.394137881906E-01
C46 -1.679364946429E-02  3.603186856880E-01 -2.394137881906E-01
C47 -2.392007496241E-01 -3.841874501877E-01  3.240606065133E-02
C48  2.392007496241E-01  3.841874501877E-01 -3.240606065133E-02
C49 -9.354251796263E-02 -4.715885279027E-01 -1.836552622968E-02
C50  9.354251796263E-02  4.715885279027E-01  1.836552622968E-02
C51  1.275193374967E-01 -4.887427963039E-01  1.034724295627E-01
C52 -1.275193374967E-01  4.887427963039E-01 -1.034724295627E-01
H53 -1.227949351966E-01  1.755618941933E-01  3.116116313591E-01
H54  1.227949351966E-01 -1.755618941933E-01 -3.116116313591E-01
H55 -2.932211229382E-02  3.504281290414E-01  4.478651764876E-01
H56  2.932211229382E-02 -3.504281290414E-01 -4.478651764876E-01
H57  3.275096248015E-01 -4.829560867176E-01  4.731827388152E-01
H58 -3.275096248015E-01  4.829560867176E-01 -4.731827388152E-01
H59 -4.077341853065E-01  4.959389716806E-01  3.655852271292E-01
H60  4.077341853065E-01 -4.959389716806E-01 -3.655852271292E-01
H61 -1.737299865982E-02  4.642714977408E-02  1.757219025343E-01
H62  1.737299865982E-02 -4.642714977408E-02 -1.757219025343E-01
H63 -3.115177621959E-01  3.751873477901E-01  2.260840011846E-01
H64  3.115177621959E-01 -3.751873477901E-01 -2.260840011846E-01
H65  9.255571316811E-02 -9.749177595354E-02  4.262105996683E-02
H66 -9.255571316811E-02  9.749177595354E-02 -4.262105996683E-02
H67 -2.045797643984E-01  2.464341845860E-01  8.944246624954E-02
H68  2.045797643984E-01 -2.464341845860E-01 -8.944246624954E-02
H69  4.023108302076E-01 -7.701457912536E-02  2.765479532635E-01
H70 -4.023108302076E-01  7.701457912536E-02 -2.765479532635E-01
H71  4.817199467076E-01  1.264233512281E-03  4.249733265115E-01
H72 -4.817199467076E-01 -1.264233512280E-03 -4.249733265115E-01
H73 -2.008323317882E-01 -1.006666432669E-01  4.891436261498E-01
H74  2.008323317882E-01  1.006666432669E-01 -4.891436261498E-01
H75  5.213625761496E-02 -2.666194270440E-01  4.025424149434E-01
H76 -5.213625761496E-02  2.666194270440E-01 -4.025424149434E-01
H77 -4.951512496561E-01 -2.199790216285E-01  1.410616339960E-01
H78  4.951512496561E-01  2.199790216285E-01 -1.410616339960E-01
H79  1.610653623331E-01 -3.994081432031E-01  2.669865062510E-01
H80 -1.610653623331E-01  3.994081432031E-01 -2.669865062510E-01
H81 -3.854151825971E-01 -3.483269150331E-01  4.882783987737E-03
H82  3.854151825971E-01  3.483269150331E-01 -4.882783987737E-03
H83  2.731194052249E-01  4.736049090704E-01  1.311335919448E-01
H84 -2.731194052249E-01 -4.736049090704E-01 -1.311335919448E-01


#===END

data_OPT_STEP_13

_symmetry_space_group_name_H-M 'P 1'
_cell_length_a      6.44737161
_cell_length_b      7.77302737
_cell_length_c     16.73223519
_cell_angle_alpha   98.694574
_cell_angle_beta   91.111030
_cell_angle_gamma   94.463691

loop_
_atom_site_label
_atom_site_fract_x
_atom_site_fract_y
_atom_site_fract_z
C1  3.373155586887E-02  2.392533884038E-01  3.250734074446E-01
C2 -3.373155586887E-02 -2.392533884038E-01 -3.250734074446E-01
C3  8.631737094304E-02  3.379643572992E-01  3.991700489433E-01
C4 -8.631737094304E-02 -3.379643572992E-01 -3.991700489433E-01
C5  2.891976102501E-01  4.327432882133E-01  4.137463670079E-01
C6 -2.891976102501E-01 -4.327432882133E-01 -4.137463670079E-01
C7  4.360446410030E-01  4.212060839215E-01  3.550853274177E-01
C8 -4.360446410030E-01 -4.212060839215E-01 -3.550853274177E-01
C9  3.897690581259E-01  3.157706093466E-01  2.764402895403E-01
C10 -3.897690581259E-01 -3.157706093466E-01 -2.764402895403E-01
C11  1.841376018276E-01  2.207534012440E-01  2.615974161245E-01
C12 -1.841376018276E-01 -2.207534012440E-01 -2.615974161245E-01
C13  1.391171421747E-01  1.108737217188E-01  1.883150230435E-01
C14 -1.391171421747E-01 -1.108737217188E-01 -1.883150230435E-01
C15  2.891973753341E-01  8.999564973703E-02  1.264101011747E-01
C16 -2.891973753341E-01 -8.999564973703E-02 -1.264101011747E-01
C17  4.933371408969E-01  1.880290152657E-01  1.405498607730E-01
C18 -4.933371408969E-01 -1.880290152657E-01 -1.405498607730E-01
C19 -4.626402204074E-01  2.986996433711E-01  2.163970700705E-01
C20  4.626402204074E-01 -2.986996433711E-01 -2.163970700705E-01
C21  2.469170256465E-01 -2.512819955045E-02  5.335648440369E-02
C22 -2.469170256465E-01  2.512819955045E-02 -5.335648440369E-02
C23  3.985332256154E-01 -5.004855472950E-02 -6.766635457883E-03
C24 -3.985332256154E-01  5.004855472950E-02  6.766635457883E-03
C25 -3.577145353735E-01  1.677017783403E-01  7.996853720937E-02
C26  3.577145353735E-01 -1.677017783403E-01 -7.996853720937E-02
C27 -4.569586875583E-01 -1.209611232447E-01  3.038924696632E-01
C28  4.569586875583E-01  1.209611232447E-01 -3.038924696632E-01
C29 -4.128163654136E-01 -7.548738649926E-02  3.853081041668E-01
C30  4.128163654136E-01  7.548738649926E-02 -3.853081041668E-01
C31 -2.269327157626E-01 -1.279838675677E-01  4.218135590419E-01
C32  2.269327157626E-01  1.279838675677E-01 -4.218135590419E-01
C33 -8.726606044848E-02 -2.196150420125E-01  3.750907209271E-01
C34  8.726606044848E-02  2.196150420125E-01 -3.750907209271E-01
C35 -1.232190209628E-01 -2.670865556374E-01  2.883356643574E-01
C36  1.232190209628E-01  2.670865556374E-01 -2.883356643574E-01
C37 -3.130676325401E-01 -2.155394294642E-01  2.517364172700E-01
C38  3.130676325401E-01  2.155394294642E-01 -2.517364172700E-01
C39 -3.530382089823E-01 -2.614244490943E-01  1.685920228025E-01
C40  3.530382089823E-01  2.614244490943E-01 -1.685920228025E-01
C41 -2.032507782352E-01 -3.438048621877E-01  1.168259667476E-01
C42  2.032507782352E-01  3.438048621877E-01 -1.168259667476E-01
C43 -1.290790995890E-02 -3.949068448038E-01  1.533326030165E-01
C44  1.290790995890E-02  3.949068448038E-01 -1.533326030165E-01
C45  2.025372593926E-02 -3.552643545535E-01  2.392892284443E-01
C46 -2.025372593926E-02  3.552643545535E-01 -2.392892284443E-01
C47 -2.396660923835E-01 -3.859523315619E-01  3.251468144637E-02
C48  2.396660923835E-01  3.859523315619E-01 -3.251468144637E-02
C49 -9.459749018587E-02 -4.735124691025E-01 -1.828050612646E-02
C50  9.459749018587E-02  4.735124691025E-01  1.828050612646E-02
C51  1.296168391055E-01 -4.853289894365E-01  1.033532701421E-01
C52 -1.296168391055E-01  4.853289894365E-01 -1.033532701421E-01
H53 -1.239090661517E-01  1.712850335545E-01  3.123141015522E-01
H54  1.239090661517E-01 -1.712850335545E-01 -3.123141015522E-01
H55 -3.030827065855E-02  3.479230702449E-01  4.482721348253E-01
H56  3.030827065855E-02 -3.479230702449E-01 -4.482721348253E-01
H57  3.274602978567E-01 -4.838828592020E-01  4.734737613912E-01
H58 -3.274602978567E-01  4.838828592020E-01 -4.734737613912E-01
H59 -4.064722881970E-01  4.940704590009E-01  3.664164981955E-01
H60  4.064722881970E-01 -4.940704590009E-01 -3.664164981955E-01
H61 -1.702235381851E-02  4.045976512704E-02  1.767982276967E-01
H62  1.702235381851E-02 -4.045976512704E-02 -1.767982276967E-01
H63 -3.091276713831E-01  3.729269541152E-01  2.270367569644E-01
H64  3.091276713831E-01 -3.729269541152E-01 -2.270367569644E-01
H65  9.152688173635E-02 -9.975372290128E-02  4.278709002196E-02
H66 -9.152688173635E-02  9.975372290128E-02 -4.278709002196E-02
H67 -2.011737916547E-01  2.425873225557E-01  9.071973233313E-02
H68  2.011737916547E-01 -2.425873225557E-01 -9.071973233313E-02
H69  3.998523326328E-01 -8.188087687243E-02  2.764782387549E-01
H70 -3.998523326328E-01  8.188087687243E-02 -2.764782387549E-01
H71  4.787721887460E-01 -1.905023287282E-03  4.248752554425E-01
H72 -4.787721887460E-01  1.905023287282E-03 -4.248752554425E-01
H73 -2.013865909027E-01 -9.949348709327E-02  4.892401052816E-01
H74  2.013865909027E-01  9.949348709327E-02 -4.892401052816E-01
H75  5.493635583483E-02 -2.604676318015E-01  4.028631809830E-01
H76 -5.493635583483E-02  2.604676318015E-01 -4.028631809830E-01
H77 -4.922778217842E-01 -2.174663786591E-01  1.407189661050E-01
H78  4.922778217842E-01  2.174663786591E-01 -1.407189661050E-01
H79  1.661780482791E-01 -3.917688603406E-01  2.668063388477E-01
H80 -1.661780482791E-01  3.917688603406E-01 -2.668063388477E-01
H81 -3.866028156382E-01 -3.512837786088E-01  5.032545775783E-03
H82  3.866028156382E-01  3.512837786088E-01 -5.032545775783E-03
H83  2.759068734532E-01  4.783153702406E-01  1.309679984451E-01
H84 -2.759068734532E-01 -4.783153702406E-01 -1.309679984451E-01


#===END

data_OPT_STEP_14

_symmetry_space_group_name_H-M 'P 1'
_cell_length_a      6.43408366
_cell_length_b      7.74422565
_cell_length_c     16.69822649
_cell_angle_alpha   98.427705
_cell_angle_beta   91.625595
_cell_angle_gamma   93.494169

loop_
_atom_site_label
_atom_site_fract_x
_atom_site_fract_y
_atom_site_fract_z
C1  3.465521662818E-02  2.413635813982E-01  3.250049148157E-01
C2 -3.465521662818E-02 -2.413635813982E-01 -3.250049148157E-01
C3  8.612998960823E-02  3.415409370899E-01  3.986945171267E-01
C4 -8.612998960823E-02 -3.415409370899E-01 -3.986945171267E-01
C5  2.889905936059E-01  4.340822918309E-01  4.136058046154E-01
C6 -2.889905936059E-01 -4.340822918309E-01 -4.136058046154E-01
C7  4.359631249440E-01  4.208620940616E-01  3.552374416896E-01
C8 -4.359631249440E-01 -4.208620940616E-01 -3.552374416896E-01
C9  3.908266768986E-01  3.140070056224E-01  2.769820070941E-01
C10 -3.908266768986E-01 -3.140070056224E-01 -2.769820070941E-01
C11  1.849268664637E-01  2.216053443915E-01  2.616861740544E-01
C12 -1.849268664637E-01 -2.216053443915E-01 -2.616861740544E-01
C13  1.394255722951E-01  1.133201852980E-01  1.880384617094E-01
C14 -1.394255722951E-01 -1.133201852980E-01 -1.880384617094E-01
C15  2.897517250163E-01  9.055105526805E-02  1.264631206168E-01
C16 -2.897517250163E-01 -9.055105526805E-02 -1.264631206168E-01
C17  4.951373276789E-01  1.842940845759E-01  1.414903422479E-01
C18 -4.951373276789E-01 -1.842940845759E-01 -1.414903422479E-01
C19 -4.615253112117E-01  2.954642115902E-01  2.171681171164E-01
C20  4.615253112117E-01 -2.954642115902E-01 -2.171681171164E-01
C21  2.465666417988E-01 -2.218484741996E-02  5.283907151872E-02
C22 -2.465666417988E-01  2.218484741996E-02 -5.283907151872E-02
C23  3.977469981058E-01 -4.764882068334E-02 -7.288388116661E-03
C24 -3.977469981058E-01  4.764882068334E-02  7.288388116661E-03
C25 -3.551944758104E-01  1.613159142848E-01  8.144490949009E-02
C26  3.551944758104E-01 -1.613159142848E-01 -8.144490949009E-02
C27 -4.507614539326E-01 -1.110571012872E-01  3.035657370373E-01
C28  4.507614539326E-01  1.110571012872E-01 -3.035657370373E-01
C29 -4.080853151246E-01 -6.956203121395E-02  3.853560720624E-01
C30  4.080853151246E-01  6.956203121395E-02 -3.853560720624E-01
C31 -2.219989902575E-01 -1.255365910426E-01  4.221351951846E-01
C32  2.219989902575E-01  1.255365910426E-01 -4.221351951846E-01
C33 -8.304275351637E-02 -2.198107549707E-01  3.755442212001E-01
C34  8.304275351637E-02  2.198107549707E-01 -3.755442212001E-01
C35 -1.182547589381E-01 -2.639948548349E-01  2.884674609980E-01
C36  1.182547589381E-01  2.639948548349E-01 -2.884674609980E-01
C37 -3.073027307903E-01 -2.075760854937E-01  2.515149864459E-01
C38  3.073027307903E-01  2.075760854937E-01 -2.515149864459E-01
C39 -3.466983820906E-01 -2.503359850787E-01  1.680724128973E-01
C40  3.466983820906E-01  2.503359850787E-01 -1.680724128973E-01
C41 -2.010773930420E-01 -3.399562787037E-01  1.167259720323E-01
C42  2.010773930420E-01  3.399562787037E-01 -1.167259720323E-01
C43 -1.145028687256E-02 -3.958509565384E-01  1.535701565364E-01
C44  1.145028687256E-02  3.958509565384E-01 -1.535701565364E-01
C45  2.357330511077E-02 -3.557878739563E-01  2.395771513527E-01
C46 -2.357330511077E-02  3.557878739563E-01 -2.395771513527E-01
C47 -2.378035895741E-01 -3.802047079583E-01  3.220995853314E-02
C48  2.378035895741E-01  3.802047079583E-01 -3.220995853314E-02
C49 -9.449728571285E-02 -4.714785224719E-01 -1.842811745856E-02
C50  9.449728571285E-02  4.714785224719E-01  1.842811745856E-02
C51  1.299198746443E-01 -4.891288159949E-01  1.037009423356E-01
C52 -1.299198746443E-01  4.891288159949E-01 -1.037009423356E-01
H53 -1.218184173653E-01  1.721646032105E-01  3.126778419856E-01
H54  1.218184173653E-01 -1.721646032105E-01 -3.126778419856E-01
H55 -3.076237930944E-02  3.532957096424E-01  4.474779951310E-01
H56  3.076237930944E-02 -3.532957096424E-01 -4.474779951310E-01
H57  3.270295166603E-01 -4.822729737910E-01  4.732177663183E-01
H58 -3.270295166603E-01  4.822729737910E-01 -4.732177663183E-01
H59 -4.074433763966E-01  4.938118859711E-01  3.664930181029E-01
H60  4.074433763966E-01 -4.938118859711E-01 -3.664930181029E-01
H61 -1.739034969374E-02  4.536252871348E-02  1.760247431573E-01
H62  1.739034969374E-02 -4.536252871348E-02 -1.760247431573E-01
H63 -3.069903556086E-01  3.668865334930E-01  2.284289563102E-01
H64  3.069903556086E-01 -3.668865334930E-01 -2.284289563102E-01
H65  9.051907540454E-02 -9.429879803594E-02  4.174022843079E-02
H66 -9.051907540454E-02  9.429879803594E-02 -4.174022843079E-02
H67 -1.980443848822E-01  2.334987013399E-01  9.274734386481E-02
H68  1.980443848822E-01 -2.334987013399E-01 -9.274734386481E-02
H69  4.045603110277E-01 -7.171861196477E-02  2.760689474077E-01
H70 -4.045603110277E-01  7.171861196477E-02 -2.760689474077E-01
H71  4.820984186501E-01  3.453524052974E-03  4.248758360900E-01
H72 -4.820984186501E-01 -3.453524052974E-03 -4.248758360900E-01
H73 -1.953196514538E-01 -9.689302348062E-02  4.895761857955E-01
H74  1.953196514538E-01  9.689302348062E-02 -4.895761857955E-01
H75  5.881177007728E-02 -2.634589999223E-01  4.036423634491E-01
H76 -5.881177007728E-02  2.634589999223E-01 -4.036423634491E-01
H77 -4.861245751039E-01 -2.040326085786E-01  1.400110709236E-01
H78  4.861245751039E-01  2.040326085786E-01 -1.400110709236E-01
H79  1.683659651914E-01 -3.964975315484E-01  2.674109282810E-01
H80 -1.683659651914E-01  3.964975315484E-01 -2.674109282810E-01
H81 -3.838730971305E-01 -3.417534515192E-01  4.475219540316E-03
H82  3.838730971305E-01  3.417534515192E-01 -4.475219540316E-03
H83  2.745761995256E-01  4.696695967111E-01  1.316535273899E-01
H84 -2.745761995256E-01 -4.696695967111E-01 -1.316535273899E-01


#===END

data_OPT_STEP_15

_symmetry_space_group_name_H-M 'P 1'
_cell_length_a      6.43511190
_cell_length_b      7.74758670
_cell_length_c     16.69905872
_cell_angle_alpha   98.456082
_cell_angle_beta   91.568746
_cell_angle_gamma   93.758659

loop_
_atom_site_label
_atom_site_fract_x
_atom_site_fract_y
_atom_site_fract_z
C1  3.574769358419E-02  2.402308308205E-01  3.253431994284E-01
C2 -3.574769358419E-02 -2.402308308205E-01 -3.253431994284E-01
C3  8.687569802632E-02  3.418035319088E-01  3.987080464859E-01
C4 -8.687569802632E-02 -3.418035319088E-01 -3.987080464859E-01
C5  2.897660399573E-01  4.350685361788E-01  4.134606455687E-01
C6 -2.897660399573E-01 -4.350685361788E-01 -4.134606455687E-01
C7  4.364124420229E-01  4.225213899213E-01  3.549350499807E-01
C8 -4.364124420229E-01 -4.225213899213E-01 -3.549350499807E-01
C9  3.915915912083E-01  3.143681953380E-01  2.769743242082E-01
C10 -3.915915912083E-01 -3.143681953380E-01 -2.769743242082E-01
C11  1.857826590644E-01  2.209233851840E-01  2.619099043086E-01
C12 -1.857826590644E-01 -2.209233851840E-01 -2.619099043086E-01
C13  1.398875687089E-01  1.126174376731E-01  1.882316001964E-01
C14 -1.398875687089E-01 -1.126174376731E-01 -1.882316001964E-01
C15  2.901466200676E-01  9.000156563237E-02  1.266182577109E-01
C16 -2.901466200676E-01 -9.000156563237E-02 -1.266182577109E-01
C17  4.956180614104E-01  1.845347372873E-01  1.414783825451E-01
C18 -4.956180614104E-01 -1.845347372873E-01 -1.414783825451E-01
C19 -4.610789206690E-01  2.964401542325E-01  2.169984622196E-01
C20  4.610789206690E-01 -2.964401542325E-01 -2.169984622196E-01
C21  2.467318665469E-01 -2.303990166318E-02  5.303687363783E-02
C22 -2.467318665469E-01  2.303990166318E-02 -5.303687363783E-02
C23  3.976680038956E-01 -4.799171311656E-02 -7.219541340532E-03
C24 -3.976680038956E-01  4.799171311656E-02  7.219541340532E-03
C25 -3.549672939561E-01  1.620906381218E-01  8.129872741752E-02
C26  3.549672939561E-01 -1.620906381218E-01 -8.129872741752E-02
C27 -4.504601087339E-01 -1.120806075639E-01  3.035645353913E-01
C28  4.504601087339E-01  1.120806075639E-01 -3.035645353913E-01
C29 -4.083496103498E-01 -7.092941156083E-02  3.854124529811E-01
C30  4.083496103498E-01  7.092941156083E-02 -3.854124529811E-01
C31 -2.219760771845E-01 -1.257691802801E-01  4.221614236342E-01
C32  2.219760771845E-01  1.257691802801E-01 -4.221614236342E-01
C33 -8.351369130367E-02 -2.204632377788E-01  3.756198629842E-01
C34  8.351369130367E-02  2.204632377788E-01 -3.756198629842E-01
C35 -1.189438354729E-01 -2.652201341377E-01  2.885695722145E-01
C36  1.189438354729E-01  2.652201341377E-01 -2.885695722145E-01
C37 -3.077656736742E-01 -2.092979874416E-01  2.516096229253E-01
C38  3.077656736742E-01  2.092979874416E-01 -2.516096229253E-01
C39 -3.468516944420E-01 -2.518242843211E-01  1.681303502867E-01
C40  3.468516944420E-01  2.518242843211E-01 -1.681303502867E-01
C41 -2.020900527961E-01 -3.421831228517E-01  1.168537114170E-01
C42  2.020900527961E-01  3.421831228517E-01 -1.168537114170E-01
C43 -1.273837348238E-02 -3.976773636670E-01  1.537091367725E-01
C44  1.273837348238E-02  3.976773636670E-01 -1.537091367725E-01
C45  2.207358340819E-02 -3.576886330184E-01  2.397318196032E-01
C46 -2.207358340819E-02  3.576886330184E-01 -2.397318196032E-01
C47 -2.380087995821E-01 -3.814175236620E-01  3.225809514562E-02
C48  2.380087995821E-01  3.814175236620E-01 -3.225809514562E-02
C49 -9.449373840698E-02 -4.718626637479E-01 -1.842300373156E-02
C50  9.449373840698E-02  4.718626637479E-01  1.842300373156E-02
C51  1.292169032081E-01 -4.895782540123E-01  1.037639904665E-01
C52 -1.292169032081E-01  4.895782540123E-01 -1.037639904665E-01
H53 -1.202439132712E-01  1.693562539417E-01  3.134250152479E-01
H54  1.202439132712E-01 -1.693562539417E-01 -3.134250152479E-01
H55 -2.990074237066E-02  3.535258813754E-01  4.474985327653E-01
H56  2.990074237066E-02 -3.535258813754E-01 -4.474985327653E-01
H57  3.280574714223E-01 -4.812470850557E-01  4.730569799762E-01
H58 -3.280574714223E-01  4.812470850557E-01 -4.730569799762E-01
H59 -4.074737386150E-01  4.967658201131E-01  3.659248618179E-01
H60  4.074737386150E-01 -4.967658201131E-01 -3.659248618179E-01
H61 -1.697664547906E-02  4.404328823459E-02  1.763419671806E-01
H62  1.697664547906E-02 -4.404328823459E-02 -1.763419671806E-01
H63 -3.062737262459E-01  3.681130124963E-01  2.282337740589E-01
H64  3.062737262459E-01 -3.681130124963E-01 -2.282337740589E-01
H65  9.070828620295E-02 -9.578665259464E-02  4.206740788761E-02
H66 -9.070828620295E-02  9.578665259464E-02 -4.206740788761E-02
H67 -1.982826269696E-01  2.355199376555E-01  9.229834932847E-02
H68  1.982826269696E-01 -2.355199376555E-01 -9.229834932847E-02
H69  4.048513896705E-01 -7.323395356146E-02  2.760432929410E-01
H70 -4.048513896705E-01  7.323395356146E-02 -2.760432929410E-01
H71  4.817366046523E-01  2.005274888549E-03  4.248309803946E-01
H72 -4.817366046523E-01 -2.005274888549E-03 -4.248309803946E-01
H73 -1.942955443079E-01 -9.548997182497E-02  4.894694068776E-01
H74  1.942955443079E-01  9.548997182497E-02 -4.894694068776E-01
H75  5.849814725649E-02 -2.633450267736E-01  4.037284330217E-01
H76 -5.849814725649E-02  2.633450267736E-01 -4.037284330217E-01
H77 -4.869358583391E-01 -2.068748196662E-01  1.401265221246E-01
H78  4.869358583391E-01  2.068748196662E-01 -1.401265221246E-01
H79  1.659411085245E-01 -3.992973390151E-01  2.676619090264E-01
H80 -1.659411085245E-01  3.992973390151E-01 -2.676619090264E-01
H81 -3.835366384239E-01 -3.426309977212E-01  4.485074760471E-03
H82  3.835366384239E-01  3.426309977212E-01 -4.485074760471E-03
H83  2.732864552348E-01  4.688700276861E-01  1.317621959232E-01
H84 -2.732864552348E-01 -4.688700276861E-01 -1.317621959232E-01


#===END

data_OPT_STEP_16

_symmetry_space_group_name_H-M 'P 1'
_cell_length_a      6.43134858
_cell_length_b      7.74842728
_cell_length_c     16.67732633
_cell_angle_alpha   98.367980
_cell_angle_beta   91.534175
_cell_angle_gamma   94.189488

loop_
_atom_site_label
_atom_site_fract_x
_atom_site_fract_y
_atom_site_fract_z
C1  3.487837028572E-02  2.398556963171E-01  3.253327325167E-01
C2 -3.487837028572E-02 -2.398556963171E-01 -3.253327325167E-01
C3  8.610621883241E-02  3.420349949567E-01  3.986094349274E-01
C4 -8.610621883241E-02 -3.420349949567E-01 -3.986094349274E-01
C5  2.900714986596E-01  4.350006489337E-01  4.135870552323E-01
C6 -2.900714986596E-01 -4.350006489337E-01 -4.135870552323E-01
C7  4.381524884503E-01  4.206750343957E-01  3.555427925932E-01
C8 -4.381524884503E-01 -4.206750343957E-01 -3.555427925932E-01
C9  3.933853027888E-01  3.116860358141E-01  2.777326803406E-01
C10 -3.933853027888E-01 -3.116860358141E-01 -2.777326803406E-01
C11  1.861983659573E-01  2.188402458654E-01  2.623595266282E-01
C12 -1.861983659573E-01 -2.188402458654E-01 -2.623595266282E-01
C13  1.400474690285E-01  1.101563603241E-01  1.886494727264E-01
C14 -1.400474690285E-01 -1.101563603241E-01 -1.886494727264E-01
C15  2.903720206907E-01  8.828634620427E-02  1.269446302505E-01
C16 -2.903720206907E-01 -8.828634620427E-02 -1.269446302505E-01
C17  4.971362997131E-01  1.825579271633E-01  1.420497005148E-01
C18 -4.971362997131E-01 -1.825579271633E-01 -1.420497005148E-01
C19 -4.581452840118E-01  2.927194625497E-01  2.180791564622E-01
C20  4.581452840118E-01 -2.927194625497E-01 -2.180791564622E-01
C21  2.459199648979E-01 -2.360871809202E-02  5.299071966139E-02
C22 -2.459199648979E-01  2.360871809202E-02 -5.299071966139E-02
C23  3.968320285026E-01 -4.758496942693E-02 -7.420816278498E-03
C24 -3.968320285026E-01  4.758496942693E-02  7.420816278498E-03
C25 -3.536737380960E-01  1.615585943844E-01  8.162229328663E-02
C26  3.536737380960E-01 -1.615585943844E-01 -8.162229328663E-02
C27 -4.491731699626E-01 -1.125514982100E-01  3.035297363062E-01
C28  4.491731699626E-01  1.125514982100E-01 -3.035297363062E-01
C29 -4.084462214353E-01 -7.321526057459E-02  3.856795529279E-01
C30  4.084462214353E-01  7.321526057459E-02 -3.856795529279E-01
C31 -2.224150062600E-01 -1.278379331591E-01  4.225401107780E-01
C32  2.224150062600E-01  1.278379331591E-01 -4.225401107780E-01
C33 -8.145193024943E-02 -2.183119447391E-01  3.757301901068E-01
C34  8.145193024943E-02  2.183119447391E-01 -3.757301901068E-01
C35 -1.166832810244E-01 -2.626422421707E-01  2.885691909240E-01
C36  1.166832810244E-01  2.626422421707E-01 -2.885691909240E-01
C37 -3.066458558899E-01 -2.093520157249E-01  2.516291064426E-01
C38  3.066458558899E-01  2.093520157249E-01 -2.516291064426E-01
C39 -3.443693589740E-01 -2.497876359954E-01  1.678574828393E-01
C40  3.443693589740E-01  2.497876359954E-01 -1.678574828393E-01
C41 -2.001438638705E-01 -3.403249590902E-01  1.166368914396E-01
C42  2.001438638705E-01  3.403249590902E-01 -1.166368914396E-01
C43 -9.741423689335E-03 -3.932954520896E-01  1.535292305618E-01
C44  9.741423689335E-03  3.932954520896E-01 -1.535292305618E-01
C45  2.534721944815E-02 -3.527148199889E-01  2.395987056821E-01
C46 -2.534721944815E-02  3.527148199889E-01 -2.395987056821E-01
C47 -2.370255228008E-01 -3.810177205322E-01  3.201888885765E-02
C48  2.370255228008E-01  3.810177205322E-01 -3.201888885765E-02
C49 -9.521891653643E-02 -4.734007723132E-01 -1.844929944350E-02
C50  9.521891653643E-02  4.734007723132E-01  1.844929944350E-02
C51  1.325471940133E-01 -4.840187507471E-01  1.036159876067E-01
C52 -1.325471940133E-01  4.840187507471E-01 -1.036159876067E-01
H53 -1.220110971398E-01  1.693029459839E-01  3.133314850873E-01
H54  1.220110971398E-01 -1.693029459839E-01 -3.133314850873E-01
H55 -3.048149538973E-02  3.535248076668E-01  4.473708238410E-01
H56  3.048149538973E-02 -3.535248076668E-01 -4.473708238410E-01
H57  3.284698408535E-01 -4.811767263108E-01  4.731117073952E-01
H58 -3.284698408535E-01  4.811767263108E-01 -4.731117073952E-01
H59 -4.045993891440E-01  4.934241086471E-01  3.670256747863E-01
H60  4.045993891440E-01 -4.934241086471E-01 -3.670256747863E-01
H61 -1.616233350311E-02  3.879321190638E-02  1.772886304858E-01
H62  1.616233350311E-02 -3.879321190638E-02 -1.772886304858E-01
H63 -3.017622024478E-01  3.631244954763E-01  2.297721363518E-01
H64  3.017622024478E-01 -3.631244954763E-01 -2.297721363518E-01
H65  8.937917741638E-02 -9.642657430177E-02  4.192008198057E-02
H66 -8.937917741638E-02  9.642657430177E-02 -4.192008198057E-02
H67 -1.971872797206E-01  2.359372887287E-01  9.247137568711E-02
H68  1.971872797206E-01 -2.359372887287E-01 -9.247137568711E-02
H69  4.071673811826E-01 -7.264470216781E-02  2.757591625630E-01
H70 -4.071673811826E-01  7.264470216781E-02 -2.757591625630E-01
H71  4.825440677692E-01  1.163276786814E-03  4.248313413883E-01
H72 -4.825440677692E-01 -1.163276786814E-03 -4.248313413883E-01
H73 -1.942327496982E-01 -9.694321640875E-02  4.897504071190E-01
H74  1.942327496982E-01  9.694321640875E-02 -4.897504071190E-01
H75  6.105695899566E-02 -2.599564411388E-01  4.039014619385E-01
H76 -6.105695899566E-02  2.599564411388E-01 -4.039014619385E-01
H77 -4.874764039977E-01 -2.094964355215E-01  1.400283177308E-01
H78  4.874764039977E-01  2.094964355215E-01 -1.400283177308E-01
H79  1.694843335898E-01 -3.932917257877E-01  2.676008960922E-01
H80 -1.694843335898E-01  3.932917257877E-01 -2.676008960922E-01
H81 -3.817367657005E-01 -3.416003161111E-01  4.085137031448E-03
H82  3.817367657005E-01  3.416003161111E-01 -4.085137031448E-03
H83  2.775230691309E-01  4.765247227817E-01  1.316128912159E-01
H84 -2.775230691309E-01 -4.765247227817E-01 -1.316128912159E-01


#===END

data_OPT_STEP_17

_symmetry_space_group_name_H-M 'P 1'
_cell_length_a      6.41889316
_cell_length_b      7.74507678
_cell_length_c     16.67122840
_cell_angle_alpha   98.364831
_cell_angle_beta   91.417791
_cell_angle_gamma   94.907530

loop_
_atom_site_label
_atom_site_fract_x
_atom_site_fract_y
_atom_site_fract_z
C1  3.522524000896E-02  2.354746850188E-01  3.259915402538E-01
C2 -3.522524000896E-02 -2.354746850188E-01 -3.259915402538E-01
C3  8.604107151585E-02  3.401841946552E-01  3.988101902322E-01
C4 -8.604107151585E-02 -3.401841946552E-01 -3.988101902322E-01
C5  2.906054235236E-01  4.354243596247E-01  4.135436594846E-01
C6 -2.906054235236E-01 -4.354243596247E-01 -4.135436594846E-01
C7  4.389990058077E-01  4.220652496830E-01  3.553650813827E-01
C8 -4.389990058077E-01 -4.220652496830E-01 -3.553650813827E-01
C9  3.931938487606E-01  3.132141427164E-01  2.774129330553E-01
C10 -3.931938487606E-01 -3.132141427164E-01 -2.774129330553E-01
C11  1.854656065045E-01  2.178442477388E-01  2.623298776995E-01
C12 -1.854656065045E-01 -2.178442477388E-01 -2.623298776995E-01
C13  1.387464854993E-01  1.085492375317E-01  1.885844924165E-01
C14 -1.387464854993E-01 -1.085492375317E-01 -1.885844924165E-01
C15  2.895134274254E-01  8.756097532205E-02  1.268604662952E-01
C16 -2.895134274254E-01 -8.756097532205E-02 -1.268604662952E-01
C17  4.976003294179E-01  1.830692711657E-01  1.419994608373E-01
C18 -4.976003294179E-01 -1.830692711657E-01 -1.419994608373E-01
C19 -4.577717223880E-01  2.949990619905E-01  2.177204975757E-01
C20  4.577717223880E-01 -2.949990619905E-01 -2.177204975757E-01
C21  2.445870878985E-01 -2.491140380601E-02  5.291305621377E-02
C22 -2.445870878985E-01  2.491140380601E-02 -5.291305621377E-02
C23  3.957856083256E-01 -4.760052684573E-02 -7.607457095467E-03
C24 -3.957856083256E-01  4.760052684573E-02  7.607457095467E-03
C25 -3.515958738296E-01  1.610891340062E-01  8.207244952309E-02
C26  3.515958738296E-01 -1.610891340062E-01 -8.207244952309E-02
C27 -4.491964792927E-01 -1.155718857885E-01  3.037476045566E-01
C28  4.491964792927E-01  1.155718857885E-01 -3.037476045566E-01
C29 -4.073659608287E-01 -7.457748977649E-02  3.859312643461E-01
C30  4.073659608287E-01  7.457748977649E-02 -3.859312643461E-01
C31 -2.205241400299E-01 -1.270868552048E-01  4.226526917461E-01
C32  2.205241400299E-01  1.270868552048E-01 -4.226526917461E-01
C33 -7.898773212265E-02 -2.157526411510E-01  3.756546587730E-01
C34  7.898773212265E-02  2.157526411510E-01 -3.756546587730E-01
C35 -1.152079589074E-01 -2.612940817403E-01  2.885600067107E-01
C36  1.152079589074E-01  2.612940817403E-01 -2.885600067107E-01
C37 -3.058710798805E-01 -2.102492814501E-01  2.517194551066E-01
C38  3.058710798805E-01  2.102492814501E-01 -2.517194551066E-01
C39 -3.435689169026E-01 -2.504914114210E-01  1.678268952936E-01
C40  3.435689169026E-01  2.504914114210E-01 -1.678268952936E-01
C41 -2.000350093439E-01 -3.413207926376E-01  1.166266683439E-01
C42  2.000350093439E-01  3.413207926376E-01 -1.166266683439E-01
C43 -9.939491599327E-03 -3.935566672531E-01  1.535859509417E-01
C44  9.939491599327E-03  3.935566672531E-01 -1.535859509417E-01
C45  2.619638162069E-02 -3.511876781546E-01  2.395708257081E-01
C46 -2.619638162069E-02  3.511876781546E-01 -2.395708257081E-01
C47 -2.375787832689E-01 -3.830683253234E-01  3.200344820810E-02
C48  2.375787832689E-01  3.830683253234E-01 -3.200344820810E-02
C49 -9.495763350527E-02 -4.735973160524E-01 -1.851115586240E-02
C50  9.495763350527E-02  4.735973160524E-01  1.851115586240E-02
C51  1.310876423897E-01 -4.853067237032E-01  1.038233851669E-01
C52 -1.310876423897E-01  4.853067237032E-01 -1.038233851669E-01
H53 -1.213693516835E-01  1.618793808231E-01  3.146309149439E-01
H54  1.213693516835E-01 -1.618793808231E-01 -3.146309149439E-01
H55 -3.066948587754E-02  3.515675240695E-01  4.474747952538E-01
H56  3.066948587754E-02 -3.515675240695E-01 -4.474747952538E-01
H57  3.292843967927E-01 -4.805417395859E-01  4.730340434717E-01
H58 -3.292843967927E-01  4.805417395859E-01 -4.730340434717E-01
H59 -4.029085169382E-01  4.949842559434E-01  3.670041985578E-01
H60  4.029085169382E-01 -4.949842559434E-01 -3.670041985578E-01
H61 -1.747273389400E-02  3.442580684523E-02  1.776286595886E-01
H62  1.747273389400E-02 -3.442580684523E-02 -1.776286595886E-01
H63 -3.011892307075E-01  3.678267084527E-01  2.290526296070E-01
H64  3.011892307075E-01 -3.678267084527E-01 -2.290526296070E-01
H65  8.729963712902E-02 -9.843236062215E-02  4.178086924804E-02
H66 -8.729963712902E-02  9.843236062215E-02 -4.178086924804E-02
H67 -1.935879136855E-01  2.343590504880E-01  9.341414831091E-02
H68  1.935879136855E-01 -2.343590504880E-01 -9.341414831091E-02
H69  4.070335145004E-01 -7.634150328413E-02  2.758913207735E-01
H70 -4.070335145004E-01  7.634150328413E-02 -2.758913207735E-01
H71  4.843464925910E-01  9.915165012782E-04  4.248604935465E-01
H72 -4.843464925910E-01 -9.915165012781E-04 -4.248604935465E-01
H73 -1.910698814056E-01 -9.460862226539E-02  4.896673440501E-01
H74  1.910698814056E-01  9.460862226539E-02 -4.896673440501E-01
H75  6.388700952184E-02 -2.565714036886E-01  4.037613253284E-01
H76 -6.388700952184E-02  2.565714036886E-01 -4.037613253284E-01
H77 -4.883449968253E-01 -2.128455959038E-01  1.400758824203E-01
H78  4.883449968253E-01  2.128455959038E-01 -1.400758824203E-01
H79  1.706981055075E-01 -3.904398082995E-01  2.675784092875E-01
H80 -1.706981055075E-01  3.904398082995E-01 -2.675784092875E-01
H81 -3.823963117486E-01 -3.445042800778E-01  4.043655569744E-03
H82  3.823963117486E-01  3.445042800778E-01 -4.043655569744E-03
H83  2.751288587060E-01  4.747558362757E-01  1.319429350550E-01
H84 -2.751288587060E-01 -4.747558362757E-01 -1.319429350550E-01


#===END

data_OPT_STEP_18

_symmetry_space_group_name_H-M 'P 1'
_cell_length_a      6.42043935
_cell_length_b      7.76981364
_cell_length_c     16.65731819
_cell_angle_alpha   98.306167
_cell_angle_beta   91.511924
_cell_angle_gamma   94.733723

loop_
_atom_site_label
_atom_site_fract_x
_atom_site_fract_y
_atom_site_fract_z
C1  3.781866959302E-02  2.335039753787E-01  3.268373118341E-01
C2 -3.781866959302E-02 -2.335039753787E-01 -3.268373118341E-01
C3  8.751617810846E-02  3.403485715352E-01  3.990831986818E-01
C4 -8.751617810846E-02 -3.403485715352E-01 -3.990831986818E-01
C5  2.915101083400E-01  4.356953188557E-01  4.135365223365E-01
C6 -2.915101083400E-01 -4.356953188557E-01 -4.135365223365E-01
C7  4.394723816586E-01  4.222043022722E-01  3.551903031399E-01
C8 -4.394723816586E-01 -4.222043022722E-01 -3.551903031399E-01
C9  3.945900785762E-01  3.114679561141E-01  2.777800214285E-01
C10 -3.945900785762E-01 -3.114679561141E-01 -2.777800214285E-01
C11  1.879594941666E-01  2.150425861188E-01  2.632150209186E-01
C12 -1.879594941666E-01 -2.150425861188E-01 -2.632150209186E-01
C13  1.420438332027E-01  1.042123311444E-01  1.898988900599E-01
C14 -1.420438332027E-01 -1.042123311444E-01 -1.898988900599E-01
C15  2.920087232294E-01  8.393267476066E-02  1.278898374418E-01
C16 -2.920087232294E-01 -8.393267476066E-02 -1.278898374418E-01
C17  4.986114321471E-01  1.811996099058E-01  1.423375136334E-01
C18 -4.986114321471E-01 -1.811996099058E-01 -1.423375136334E-01
C19 -4.569804280299E-01  2.935843126955E-01  2.178455528911E-01
C20  4.569804280299E-01 -2.935843126955E-01 -2.178455528911E-01
C21  2.474238191246E-01 -2.904423220888E-02  5.416327090671E-02
C22 -2.474238191246E-01  2.904423220888E-02 -5.416327090671E-02
C23  3.967088498188E-01 -4.882695670820E-02 -7.186088376091E-03
C24 -3.967088498188E-01  4.882695670820E-02  7.186088376091E-03
C25 -3.519390981618E-01  1.611065959201E-01  8.185304801880E-02
C26  3.519390981618E-01 -1.611065959201E-01 -8.185304801880E-02
C27 -4.475297397962E-01 -1.141761655342E-01  3.036751824454E-01
C28  4.475297397962E-01  1.141761655342E-01 -3.036751824454E-01
C29 -4.052133142329E-01 -7.290715502978E-02  3.859495163829E-01
C30  4.052133142329E-01  7.290715502978E-02 -3.859495163829E-01
C31 -2.178755900707E-01 -1.249880428608E-01  4.226623519717E-01
C32  2.178755900707E-01  1.249880428608E-01 -4.226623519717E-01
C33 -7.727249357548E-02 -2.147667904125E-01  3.756958306602E-01
C34  7.727249357548E-02  2.147667904125E-01 -3.756958306602E-01
C35 -1.135741722605E-01 -2.598619766903E-01  2.885485365378E-01
C36  1.135741722605E-01  2.598619766903E-01 -2.885485365378E-01
C37 -3.047755204567E-01 -2.094605400851E-01  2.516943780511E-01
C38  3.047755204567E-01  2.094605400851E-01 -2.516943780511E-01
C39 -3.442680151169E-01 -2.518055012032E-01  1.678623059503E-01
C40  3.442680151169E-01  2.518055012032E-01 -1.678623059503E-01
C41 -2.011349645765E-01 -3.431711603284E-01  1.167046250469E-01
C42  2.011349645765E-01  3.431711603284E-01 -1.167046250469E-01
C43 -9.185076928529E-03 -3.928985851688E-01  1.535956148606E-01
C44  9.185076928529E-03  3.928985851688E-01 -1.535956148606E-01
C45  2.776688343446E-02 -3.496055801723E-01  2.395541809337E-01
C46 -2.776688343446E-02  3.496055801723E-01 -2.395541809337E-01
C47 -2.398943172222E-01 -3.863287785676E-01  3.210760194519E-02
C48  2.398943172222E-01  3.863287785676E-01 -3.210760194519E-02
C49 -9.625342280996E-02 -4.753585233114E-01 -1.845670070396E-02
C50  9.625342280996E-02  4.753585233114E-01  1.845670070396E-02
C51  1.330552746333E-01 -4.828238521783E-01  1.037692426240E-01
C52 -1.330552746333E-01  4.828238521783E-01 -1.037692426240E-01
H53 -1.182344263386E-01  1.592524243385E-01  3.158584167396E-01
H54  1.182344263386E-01 -1.592524243385E-01 -3.158584167396E-01
H55 -2.915024328768E-02  3.526761219420E-01  4.475999171925E-01
H56  2.915024328768E-02 -3.526761219420E-01 -4.475999171925E-01
H57  3.298728592783E-01 -4.799363681628E-01  4.728388699033E-01
H58 -3.298728592783E-01  4.799363681628E-01 -4.728388699033E-01
H59 -4.034697522347E-01  4.961414476132E-01  3.664218618031E-01
H60  4.034697522347E-01 -4.961414476132E-01 -3.664218618031E-01
H61 -1.358959502909E-02  2.910977450712E-02  1.792911468534E-01
H62  1.358959502909E-02 -2.910977450712E-02 -1.792911468534E-01
H63 -3.008973477894E-01  3.672169117618E-01  2.288371408657E-01
H64  3.008973477894E-01 -3.672169117618E-01 -2.288371408657E-01
H65  9.130058925244E-02 -1.041225585950E-01  4.355684658467E-02
H66 -9.130058925244E-02  1.041225585950E-01 -4.355684658467E-02
H67 -1.945843813791E-01  2.346601015070E-01  9.296192706558E-02
H68  1.945843813791E-01 -2.346601015070E-01 -9.296192706558E-02
H69  4.088297920344E-01 -7.444409167153E-02  2.756812181378E-01
H70 -4.088297920344E-01  7.444409167153E-02 -2.756812181378E-01
H71  4.860007472025E-01  2.396408809178E-03  4.247996952158E-01
H72 -4.860007472025E-01 -2.396408809178E-03 -4.247996952158E-01
H73 -1.878520188543E-01 -9.218918984375E-02  4.896052365632E-01
H74  1.878520188543E-01  9.218918984375E-02 -4.896052365632E-01
H75  6.545414809403E-02 -2.562492204626E-01  4.038509177219E-01
H76 -6.545414809403E-02  2.562492204626E-01 -4.038509177219E-01
H77 -4.895210198161E-01 -2.143312114415E-01  1.400324493005E-01
H78  4.895210198161E-01  2.143312114415E-01 -1.400324493005E-01
H79  1.730607975151E-01 -3.877703005080E-01  2.675736213324E-01
H80 -1.730607975151E-01  3.877703005080E-01 -2.675736213324E-01
H81 -3.861736020075E-01 -3.497700487923E-01  4.207695336043E-03
H82  3.861736020075E-01  3.497700487923E-01 -4.207695336043E-03
H83  2.785679642341E-01  4.793700754544E-01  1.318272212046E-01
H84 -2.785679642341E-01 -4.793700754544E-01 -1.318272212046E-01


#===END

data_OPT_STEP_19

_symmetry_space_group_name_H-M 'P 1'
_cell_length_a      6.41123032
_cell_length_b      7.77114122
_cell_length_c     16.64863000
_cell_angle_alpha   98.323384
_cell_angle_beta   91.319124
_cell_angle_gamma   95.654691

loop_
_atom_site_label
_atom_site_fract_x
_atom_site_fract_y
_atom_site_fract_z
C1  3.656436365957E-02  2.339392582122E-01  3.264949707301E-01
C2 -3.656436365957E-02 -2.339392582122E-01 -3.264949707301E-01
C3  8.745122002658E-02  3.409948333619E-01  3.988663070145E-01
C4 -8.745122002658E-02 -3.409948333619E-01 -3.988663070145E-01
C5  2.930270664184E-01  4.373930878648E-01  4.133348927029E-01
C6 -2.930270664184E-01 -4.373930878648E-01 -4.133348927029E-01
C7  4.414661269525E-01  4.245238288877E-01  3.549085386449E-01
C8 -4.414661269525E-01 -4.245238288877E-01 -3.549085386449E-01
C9  3.965579575004E-01  3.113890438456E-01  2.779339925372E-01
C10 -3.965579575004E-01 -3.113890438456E-01 -2.779339925372E-01
C11  1.881761180544E-01  2.141010806815E-01  2.633064888121E-01
C12 -1.881761180544E-01 -2.141010806815E-01 -2.633064888121E-01
C13  1.409008666566E-01  1.034727432033E-01  1.897777225264E-01
C14 -1.409008666566E-01 -1.034727432033E-01 -1.897777225264E-01
C15  2.915917520348E-01  8.329574277475E-02  1.278825080088E-01
C16 -2.915917520348E-01 -8.329574277475E-02 -1.278825080088E-01
C17 -4.997371302839E-01  1.808863369774E-01  1.425257376410E-01
C18  4.997371302839E-01 -1.808863369774E-01 -1.425257376410E-01
C19 -4.543738644646E-01  2.939150795069E-01  2.180009208308E-01
C20  4.543738644646E-01 -2.939150795069E-01 -2.180009208308E-01
C21  2.454711445840E-01 -2.914275765189E-02  5.387929084326E-02
C22 -2.454711445840E-01  2.914275765189E-02 -5.387929084326E-02
C23  3.957800200107E-01 -4.923030365874E-02 -7.230793213355E-03
C24 -3.957800200107E-01  4.923030365874E-02  7.230793213355E-03
C25 -3.496825132567E-01  1.612976024734E-01  8.208122347898E-02
C26  3.496825132567E-01 -1.612976024734E-01 -8.208122347898E-02
C27 -4.463633374446E-01 -1.163005575981E-01  3.037779646781E-01
C28  4.463633374446E-01  1.163005575981E-01 -3.037779646781E-01
C29 -4.035235111552E-01 -7.378353181520E-02  3.860881873434E-01
C30  4.035235111552E-01  7.378353181520E-02 -3.860881873434E-01
C31 -2.171018895548E-01 -1.254708479837E-01  4.228937277415E-01
C32  2.171018895548E-01  1.254708479837E-01 -4.228937277415E-01
C33 -7.757428328413E-02 -2.155483631745E-01  3.759562779043E-01
C34  7.757428328413E-02  2.155483631745E-01 -3.759562779043E-01
C35 -1.136561086447E-01 -2.606457375849E-01  2.887446208278E-01
C36  1.136561086447E-01  2.606457375849E-01 -2.887446208278E-01
C37 -3.040208719796E-01 -2.108969972157E-01  2.518090001652E-01
C38  3.040208719796E-01  2.108969972157E-01 -2.518090001652E-01
C39 -3.439431124196E-01 -2.541511973574E-01  1.679414336588E-01
C40  3.439431124196E-01  2.541511973574E-01 -1.679414336588E-01
C41 -2.015159702662E-01 -3.453869910129E-01  1.168180288938E-01
C42  2.015159702662E-01  3.453869910129E-01 -1.168180288938E-01
C43 -9.785611284585E-03 -3.936959316342E-01  1.537515799657E-01
C44  9.785611284585E-03  3.936959316342E-01 -1.537515799657E-01
C45  2.724794119253E-02 -3.498062664224E-01  2.397362224611E-01
C46 -2.724794119253E-02  3.498062664224E-01 -2.397362224611E-01
C47 -2.388997594849E-01 -3.868503829739E-01  3.202490892099E-02
C48  2.388997594849E-01  3.868503829739E-01 -3.202490892099E-02
C49 -9.609778944481E-02 -4.759981516681E-01 -1.848457779186E-02
C50  9.609778944481E-02  4.759981516681E-01  1.848457779186E-02
C51  1.331523627028E-01 -4.814619869651E-01  1.038248857231E-01
C52 -1.331523627028E-01  4.814619869651E-01 -1.038248857231E-01
H53 -1.211058321842E-01  1.598493675702E-01  3.153736663410E-01
H54  1.211058321842E-01 -1.598493675702E-01 -3.153736663410E-01
H55 -2.910844642296E-02  3.527161055694E-01  4.474630121719E-01
H56  2.910844642296E-02 -3.527161055694E-01 -4.474630121719E-01
H57  3.319649356863E-01 -4.780769422188E-01  4.726586168863E-01
H58 -3.319649356863E-01  4.780769422188E-01 -4.726586168863E-01
H59 -4.013198302544E-01 -4.995198283126E-01  3.658244103518E-01
H60  4.013198302544E-01  4.995198283126E-01 -3.658244103518E-01
H61 -1.696492787584E-02  2.945163563674E-02  1.786885736317E-01
H62  1.696492787584E-02 -2.945163563674E-02 -1.786885736317E-01
H63 -2.965241074888E-01  3.676799292338E-01  2.291737899175E-01
H64  2.965241074888E-01 -3.676799292338E-01 -2.291737899175E-01
H65  8.756076284265E-02 -1.035053276566E-01  4.288657260967E-02
H66 -8.756076284265E-02  1.035053276566E-01 -4.288657260967E-02
H67 -1.910688845978E-01  2.348241634085E-01  9.337255450269E-02
H68  1.910688845978E-01 -2.348241634085E-01 -9.337255450269E-02
H69  4.096177301194E-01 -7.804521296214E-02  2.757201472873E-01
H70 -4.096177301194E-01  7.804521296214E-02 -2.757201472873E-01
H71  4.879634689998E-01  1.934982311674E-03  4.247365374045E-01
H72 -4.879634689998E-01 -1.934982311673E-03 -4.247365374045E-01
H73 -1.867909198316E-01 -9.213953613072E-02  4.897782126477E-01
H74  1.867909198316E-01  9.213953613072E-02 -4.897782126477E-01
H75  6.608188208357E-02 -2.549758599162E-01  4.039976821920E-01
H76 -6.608188208357E-02  2.549758599162E-01 -4.039976821920E-01
H77 -4.879568459440E-01 -2.154849352385E-01  1.398877488524E-01
H78  4.879568459440E-01  2.154849352385E-01 -1.398877488524E-01
H79  1.723982107110E-01 -3.870198358326E-01  2.678140628889E-01
H80 -1.723982107110E-01  3.870198358326E-01 -2.678140628889E-01
H81 -3.841552506491E-01 -3.498152587735E-01  4.001309020528E-03
H82  3.841552506491E-01  3.498152587735E-01 -4.001309020528E-03
H83  2.788214052295E-01  4.821240263613E-01  1.318828845929E-01
H84 -2.788214052295E-01 -4.821240263613E-01 -1.318828845929E-01


#===END

data_OPT_STEP_20

_symmetry_space_group_name_H-M 'P 1'
_cell_length_a      6.44396407
_cell_length_b      7.80596182
_cell_length_c     16.64653199
_cell_angle_alpha   98.444550
_cell_angle_beta   91.217501
_cell_angle_gamma   95.801469

loop_
_atom_site_label
_atom_site_fract_x
_atom_site_fract_y
_atom_site_fract_z
C1  3.950042360049E-02  2.316076541740E-01  3.271773716314E-01
C2 -3.950042360049E-02 -2.316076541740E-01 -3.271773716314E-01
C3  9.006128521845E-02  3.387866074866E-01  3.995518672440E-01
C4 -9.006128521845E-02 -3.387866074866E-01 -3.995518672440E-01
C5  2.943286600252E-01  4.358050107542E-01  4.138226132846E-01
C6 -2.943286600252E-01 -4.358050107542E-01 -4.138226132846E-01
C7  4.421351791848E-01  4.229113292639E-01  3.553206329012E-01
C8 -4.421351791848E-01 -4.229113292639E-01 -3.553206329012E-01
C9  3.969573760799E-01  3.106808173642E-01  2.781396576518E-01
C10 -3.969573760799E-01 -3.106808173642E-01 -2.781396576518E-01
C11  1.898129504838E-01  2.129698130336E-01  2.636566812475E-01
C12 -1.898129504838E-01 -2.129698130336E-01 -2.636566812475E-01
C13  1.419818802696E-01  1.039084541621E-01  1.897408740710E-01
C14 -1.419818802696E-01 -1.039084541621E-01 -1.897408740710E-01
C15  2.918725419576E-01  8.405564925453E-02  1.277324397407E-01
C16 -2.918725419576E-01 -8.405564925453E-02 -1.277324397407E-01
C17  4.995373208067E-01  1.816606594428E-01  1.423259762562E-01
C18 -4.995373208067E-01 -1.816606594428E-01 -1.423259762562E-01
C19 -4.553456106768E-01  2.945672940341E-01  2.178186052860E-01
C20  4.553456106768E-01 -2.945672940341E-01 -2.178186052860E-01
C21  2.457890140069E-01 -2.788721177466E-02  5.359593853870E-02
C22 -2.457890140069E-01  2.788721177466E-02 -5.359593853870E-02
C23  3.961245698118E-01 -4.897805738940E-02 -7.269965337914E-03
C24 -3.961245698118E-01  4.897805738940E-02  7.269965337914E-03
C25 -3.512607088604E-01  1.626441086330E-01  8.171186678224E-02
C26  3.512607088604E-01 -1.626441086330E-01 -8.171186678224E-02
C27 -4.442185883765E-01 -1.156315646104E-01  3.036078754927E-01
C28  4.442185883765E-01  1.156315646104E-01 -3.036078754927E-01
C29 -4.026587711632E-01 -7.373069332926E-02  3.860256745572E-01
C30  4.026587711632E-01  7.373069332926E-02 -3.860256745572E-01
C31 -2.168919074593E-01 -1.239479400340E-01  4.228804368110E-01
C32  2.168919074593E-01  1.239479400340E-01 -4.228804368110E-01
C33 -7.754531939067E-02 -2.131755555755E-01  3.759548561445E-01
C34  7.754531939067E-02  2.131755555755E-01 -3.759548561445E-01
C35 -1.128934243016E-01 -2.584649740873E-01  2.886929697203E-01
C36  1.128934243016E-01  2.584649740873E-01 -2.886929697203E-01
C37 -3.021551536173E-01 -2.095182600959E-01  2.516751897994E-01
C38  3.021551536173E-01  2.095182600959E-01 -2.516751897994E-01
C39 -3.408685828209E-01 -2.521440082333E-01  1.677046337733E-01
C40  3.408685828209E-01  2.521440082333E-01 -1.677046337733E-01
C41 -1.993845268188E-01 -3.435983419988E-01  1.166706220238E-01
C42  1.993845268188E-01  3.435983419988E-01 -1.166706220238E-01
C43 -9.377847745737E-03 -3.920974763180E-01  1.537348432373E-01
C44  9.377847745737E-03  3.920974763180E-01 -1.537348432373E-01
C45  2.720516613083E-02 -3.477789381992E-01  2.397450601913E-01
C46 -2.720516613083E-02  3.477789381992E-01 -2.397450601913E-01
C47 -2.360783949775E-01 -3.850413867927E-01  3.181703781407E-02
C48  2.360783949775E-01  3.850413867927E-01 -3.181703781407E-02
C49 -9.508839497377E-02 -4.757044881300E-01 -1.855830601380E-02
C50  9.508839497377E-02  4.757044881300E-01  1.855830601380E-02
C51  1.320893913501E-01 -4.808981962860E-01  1.039020739290E-01
C52 -1.320893913501E-01  4.808981962860E-01 -1.039020739290E-01
H53 -1.173224356555E-01  1.568741385918E-01  3.162849638352E-01
H54  1.173224356555E-01 -1.568741385918E-01 -3.162849638352E-01
H55 -2.610236119922E-02  3.507861237735E-01  4.480882095535E-01
H56  2.610236119922E-02 -3.507861237735E-01 -4.480882095535E-01
H57  3.327354771071E-01 -4.790509153373E-01  4.729643767282E-01
H58 -3.327354771071E-01  4.790509153373E-01 -4.729643767282E-01
H59 -4.012032053349E-01  4.985128441731E-01  3.662744272520E-01
H60  4.012032053349E-01 -4.985128441731E-01 -3.662744272520E-01
H61 -1.581361581854E-02  3.060830276532E-02  1.784936590337E-01
H62  1.581361581854E-02 -3.060830276532E-02 -1.784936590337E-01
H63 -2.979928004503E-01  3.685245034325E-01  2.289441604509E-01
H64  2.979928004503E-01 -3.685245034325E-01 -2.289441604509E-01
H65  8.827221799380E-02 -1.018643378132E-01  4.251546994781E-02
H66 -8.827221799380E-02  1.018643378132E-01 -4.251546994781E-02
H67 -1.940522580451E-01  2.373764862048E-01  9.266125393251E-02
H68  1.940522580451E-01 -2.373764862048E-01 -9.266125393251E-02
H69  4.124395702078E-01 -7.782203289708E-02  2.754533908209E-01
H70 -4.124395702078E-01  7.782203289708E-02 -2.754533908209E-01
H71  4.883351637433E-01  9.822608679271E-04  4.246077971633E-01
H72 -4.883351637433E-01 -9.822608679271E-04 -4.246077971633E-01
H73 -1.866664028776E-01 -9.001299253880E-02  4.897146083340E-01
H74  1.866664028776E-01  9.001299253880E-02 -4.897146083340E-01
H75  6.587264560968E-02 -2.513902843034E-01  4.040421711723E-01
H76 -6.587264560968E-02  2.513902843034E-01 -4.040421711723E-01
H77 -4.833889275008E-01 -2.126102575887E-01  1.394672522799E-01
H78  4.833889275008E-01  2.126102575887E-01 -1.394672522799E-01
H79  1.711137982443E-01 -3.852164161230E-01  2.679425843349E-01
H80 -1.711137982443E-01  3.852164161230E-01 -2.679425843349E-01
H81 -3.796898250812E-01 -3.470860469253E-01  3.663660824002E-03
H82  3.796898250812E-01  3.470860469253E-01 -3.663660824002E-03
H83  2.763030050216E-01  4.821356759036E-01  1.320630040650E-01
H84 -2.763030050216E-01 -4.821356759036E-01 -1.320630040650E-01


#===END

data_OPT_STEP_21

_symmetry_space_group_name_H-M 'P 1'
_cell_length_a      6.41712623
_cell_length_b      7.77705751
_cell_length_c     16.64656537
_cell_angle_alpha   98.332480
_cell_angle_beta   91.307018
_cell_angle_gamma   95.695295

loop_
_atom_site_label
_atom_site_fract_x
_atom_site_fract_y
_atom_site_fract_z
C1  3.745893743123E-02  2.330409146333E-01  3.267203330111E-01
C2 -3.745893743123E-02 -2.330409146333E-01 -3.267203330111E-01
C3  8.826148681293E-02  3.403013925018E-01  3.990602265958E-01
C4 -8.826148681293E-02 -3.403013925018E-01 -3.990602265958E-01
C5  2.935696162552E-01  4.369550363894E-01  4.134574333260E-01
C6 -2.935696162552E-01 -4.369550363894E-01 -4.134574333260E-01
C7  4.419836429355E-01  4.238772655141E-01  3.550541132996E-01
C8 -4.419836429355E-01 -4.238772655141E-01 -3.550541132996E-01
C9  3.967758515218E-01  3.112101241476E-01  2.779739137089E-01
C10 -3.967758515218E-01 -3.112101241476E-01 -2.779739137089E-01
C11  1.886915288631E-01  2.136486472339E-01  2.634191531948E-01
C12 -1.886915288631E-01 -2.136486472339E-01 -2.634191531948E-01
C13  1.411148813908E-01  1.035684938560E-01  1.897549949769E-01
C14 -1.411148813908E-01 -1.035684938560E-01 -1.897549949769E-01
C15  2.916146330448E-01  8.350404322448E-02  1.278294423218E-01
C16 -2.916146330448E-01 -8.350404322448E-02 -1.278294423218E-01
C17 -4.999656750540E-01  1.812861089886E-01  1.424170548869E-01
C18  4.999656750540E-01 -1.812861089886E-01 -1.424170548869E-01
C19 -4.546263929348E-01  2.943494700979E-01  2.178775948779E-01
C20  4.546263929348E-01 -2.943494700979E-01 -2.178775948779E-01
C21  2.454214557927E-01 -2.880163416058E-02  5.378787976749E-02
C22 -2.454214557927E-01  2.880163416058E-02 -5.378787976749E-02
C23  3.958126063460E-01 -4.916999729761E-02 -7.241817895459E-03
C24 -3.958126063460E-01  4.916999729761E-02  7.241817895459E-03
C25 -3.502035785233E-01  1.620744654141E-01  8.187863738749E-02
C26  3.502035785233E-01 -1.620744654141E-01 -8.187863738749E-02
C27 -4.461079346735E-01 -1.165518302652E-01  3.037340609026E-01
C28  4.461079346735E-01  1.165518302652E-01 -3.037340609026E-01
C29 -4.035931626806E-01 -7.427701348354E-02  3.860759804734E-01
C30  4.035931626806E-01  7.427701348354E-02 -3.860759804734E-01
C31 -2.170941067874E-01 -1.253693420660E-01  4.228993560092E-01
C32  2.170941067874E-01  1.253693420660E-01 -4.228993560092E-01
C33 -7.739574849857E-02 -2.149709896361E-01  3.759628574692E-01
C34  7.739574849857E-02  2.149709896361E-01 -3.759628574692E-01
C35 -1.132800751887E-01 -2.600513640673E-01  2.887291831475E-01
C36  1.132800751887E-01  2.600513640673E-01 -2.887291831475E-01
C37 -3.037028736419E-01 -2.108246322222E-01  2.517803408906E-01
C38  3.037028736419E-01  2.108246322222E-01 -2.517803408906E-01
C39 -3.432144671147E-01 -2.536781384768E-01  1.678705965729E-01
C40  3.432144671147E-01  2.536781384768E-01 -1.678705965729E-01
C41 -2.009391750479E-01 -3.448793665375E-01  1.167767468386E-01
C42  2.009391750479E-01  3.448793665375E-01 -1.167767468386E-01
C43 -9.384431262389E-03 -3.930484264281E-01  1.537370469825E-01
C44  9.384431262389E-03  3.930484264281E-01 -1.537370469825E-01
C45  2.761377757267E-02 -3.490529049340E-01  2.397287149332E-01
C46 -2.761377757267E-02  3.490529049340E-01 -2.397287149332E-01
C47 -2.383215548463E-01 -3.864550966295E-01  3.197485868081E-02
C48  2.383215548463E-01  3.864550966295E-01 -3.197485868081E-02
C49 -9.596321925300E-02 -4.760044806076E-01 -1.849865385503E-02
C50  9.596321925300E-02  4.760044806076E-01  1.849865385503E-02
C51  1.332129461305E-01 -4.810874262295E-01  1.038317079992E-01
C52 -1.332129461305E-01  4.810874262295E-01 -1.038317079992E-01
H53 -1.200116815179E-01  1.586135289262E-01  3.157035603141E-01
H54  1.200116815179E-01 -1.586135289262E-01 -3.157035603141E-01
H55 -2.826703164185E-02  3.522441154795E-01  4.476031854547E-01
H56  2.826703164185E-02 -3.522441154795E-01 -4.476031854547E-01
H57  3.323023563099E-01 -4.781407183511E-01  4.726783836040E-01
H58 -3.323023563099E-01  4.781407183511E-01 -4.726783836040E-01
H59 -4.007697956730E-01  4.995322356901E-01  3.660253270543E-01
H60  4.007697956730E-01 -4.995322356901E-01 -3.660253270543E-01
H61 -1.684847117812E-02  2.970874197632E-02  1.786232323534E-01
H62  1.684847117812E-02 -2.970874197632E-02 -1.786232323534E-01
H63 -2.967960692790E-01  3.682317107601E-01  2.290326516157E-01
H64  2.967960692790E-01 -3.682317107601E-01 -2.290326516157E-01
H65  8.759485275354E-02 -1.032104905558E-01  4.280042715535E-02
H66 -8.759485275354E-02  1.032104905558E-01 -4.280042715535E-02
H67 -1.921264361252E-01  2.363441000513E-01  9.297536420419E-02
H68  1.921264361252E-01 -2.363441000513E-01 -9.297536420419E-02
H69  4.099268464594E-01 -7.844338300570E-02  2.756361159834E-01
H70 -4.099268464594E-01  7.844338300570E-02 -2.756361159834E-01
H71  4.876905980750E-01  1.209485343286E-03  4.246858689949E-01
H72 -4.876905980750E-01 -1.209485343286E-03 -4.246858689949E-01
H73 -1.866241877460E-01 -9.168418398749E-02  4.897504774509E-01
H74  1.866241877460E-01  9.168418398749E-02 -4.897504774509E-01
H75  6.639167204855E-02 -2.539078457087E-01  4.040285811166E-01
H76 -6.639167204855E-02  2.539078457087E-01 -4.040285811166E-01
H77 -4.869263649327E-01 -2.147442398652E-01  1.397488178200E-01
H78  4.869263649327E-01  2.147442398652E-01 -1.397488178200E-01
H79  1.724977733882E-01 -3.863497221381E-01  2.678502143131E-01
H80 -1.724977733882E-01  3.863497221381E-01 -2.678502143131E-01
H81 -3.832240847873E-01 -3.491551394567E-01  3.912726038059E-03
H82  3.832240847873E-01  3.491551394567E-01 -3.912726038059E-03
H83  2.785696693391E-01  4.823350049875E-01  1.319191945468E-01
H84 -2.785696693391E-01 -4.823350049875E-01 -1.319191945468E-01


#===END

data_OPT_STEP_22

_symmetry_space_group_name_H-M 'P 1'
_cell_length_a      6.41369660
_cell_length_b      7.77560453
_cell_length_c     16.63803400
_cell_angle_alpha   98.312586
_cell_angle_beta   91.330453
_cell_angle_gamma   95.790919

loop_
_atom_site_label
_atom_site_fract_x
_atom_site_fract_y
_atom_site_fract_z
C1  3.769571237147E-02  2.332106458134E-01  3.267433934359E-01
C2 -3.769571237147E-02 -2.332106458134E-01 -3.267433934359E-01
C3  8.876858605917E-02  3.406145661559E-01  3.991158569092E-01
C4 -8.876858605917E-02 -3.406145661559E-01 -3.991158569092E-01
C5  2.943005209490E-01  4.375332222292E-01  4.134895437537E-01
C6 -2.943005209490E-01 -4.375332222292E-01 -4.134895437537E-01
C7  4.429344969884E-01  4.240829972298E-01  3.551493728795E-01
C8 -4.429344969884E-01 -4.240829972298E-01 -3.551493728795E-01
C9  3.972530484212E-01  3.116000857998E-01  2.779909819319E-01
C10 -3.972530484212E-01 -3.116000857998E-01 -2.779909819319E-01
C11  1.888834836717E-01  2.139510594183E-01  2.634172031349E-01
C12 -1.888834836717E-01 -2.139510594183E-01 -2.634172031349E-01
C13  1.410572961770E-01  1.037760197068E-01  1.897340539243E-01
C14 -1.410572961770E-01 -1.037760197068E-01 -1.897340539243E-01
C15  2.917011947119E-01  8.345708032146E-02  1.278702042845E-01
C16 -2.917011947119E-01 -8.345708032146E-02 -1.278702042845E-01
C17 -4.995910105568E-01  1.813260674271E-01  1.424719754705E-01
C18  4.995910105568E-01 -1.813260674271E-01 -1.424719754705E-01
C19 -4.539992557261E-01  2.944677425960E-01  2.179427410206E-01
C20  4.539992557261E-01 -2.944677425960E-01 -2.179427410206E-01
C21  2.452623778313E-01 -2.901380385033E-02  5.381537098014E-02
C22 -2.452623778313E-01  2.901380385033E-02 -5.381537098014E-02
C23  3.955280815478E-01 -4.896989881441E-02 -7.311323448814E-03
C24 -3.955280815478E-01  4.896989881441E-02  7.311323448814E-03
C25 -3.496472728370E-01  1.618936393697E-01  8.197811826648E-02
C26  3.496472728370E-01 -1.618936393697E-01 -8.197811826648E-02
C27 -4.459808602985E-01 -1.170284391556E-01  3.037100189525E-01
C28  4.459808602985E-01  1.170284391556E-01 -3.037100189525E-01
C29 -4.039575413416E-01 -7.550039456696E-02  3.861207007923E-01
C30  4.039575413416E-01  7.550039456696E-02 -3.861207007923E-01
C31 -2.174038783693E-01 -1.264016353785E-01  4.230608625618E-01
C32  2.174038783693E-01  1.264016353785E-01 -4.230608625618E-01
C33 -7.705351877067E-02 -2.149908395073E-01  3.761179817816E-01
C34  7.705351877067E-02  2.149908395073E-01 -3.761179817816E-01
C35 -1.132062218363E-01 -2.605465918086E-01  2.888567079369E-01
C36  1.132062218363E-01  2.605465918086E-01 -2.888567079369E-01
C37 -3.038693825764E-01 -2.116075944289E-01  2.518333081984E-01
C38  3.038693825764E-01  2.116075944289E-01 -2.518333081984E-01
C39 -3.430898208647E-01 -2.540059021480E-01  1.678635625164E-01
C40  3.430898208647E-01  2.540059021480E-01 -1.678635625164E-01
C41 -2.006083264632E-01 -3.447127088272E-01  1.167858749874E-01
C42  2.006083264632E-01  3.447127088272E-01 -1.167858749874E-01
C43 -8.831434875578E-03 -3.926903298500E-01  1.537915095641E-01
C44  8.831434875578E-03  3.926903298500E-01 -1.537915095641E-01
C45  2.799632934547E-02 -3.491460258210E-01  2.398518516459E-01
C46 -2.799632934547E-02  3.491460258210E-01 -2.398518516459E-01
C47 -2.390089845812E-01 -3.875589784688E-01  3.202910007976E-02
C48  2.390089845812E-01  3.875589784688E-01 -3.202910007976E-02
C49 -9.615447490125E-02 -4.762224723346E-01 -1.850173831352E-02
C50  9.615447490125E-02  4.762224723346E-01  1.850173831352E-02
C51  1.336622586314E-01 -4.808007537891E-01  1.038733931546E-01
C52 -1.336622586314E-01  4.808007537891E-01 -1.038733931546E-01
H53 -1.199806588338E-01  1.585232037074E-01  3.157858750215E-01
H54  1.199806588338E-01 -1.585232037074E-01 -3.157858750215E-01
H55 -2.782490357403E-02  3.528325993878E-01  4.475886998587E-01
H56  2.782490357403E-02 -3.528325993878E-01 -4.475886998587E-01
H57  3.329713530551E-01 -4.770754021329E-01  4.726077183814E-01
H58 -3.329713530551E-01  4.770754021329E-01 -4.726077183814E-01
H59 -3.994708721371E-01  4.994163984533E-01  3.661989301734E-01
H60  3.994708721371E-01 -4.994163984533E-01 -3.661989301734E-01
H61 -1.706292688315E-02  2.947720488872E-02  1.786695432834E-01
H62  1.706292688315E-02 -2.947720488872E-02 -1.786695432834E-01
H63 -2.956663875602E-01  3.682875658437E-01  2.291667343974E-01
H64  2.956663875602E-01 -3.682875658437E-01 -2.291667343974E-01
H65  8.743367342685E-02 -1.039838185735E-01  4.293211296020E-02
H66 -8.743367342685E-02  1.039838185735E-01 -4.293211296020E-02
H67 -1.915655004330E-01  2.364823244903E-01  9.300786220944E-02
H68  1.915655004330E-01 -2.364823244903E-01 -9.300786220944E-02
H69  4.102935749344E-01 -7.848049724588E-02  2.755032582335E-01
H70 -4.102935749344E-01  7.848049724588E-02 -2.755032582335E-01
H71  4.871733691333E-01  1.321282667905E-05  4.246475304573E-01
H72 -4.871733691333E-01 -1.321282667900E-05 -4.246475304573E-01
H73 -1.866482378903E-01 -9.229438469183E-02  4.898879659236E-01
H74  1.866482378903E-01  9.229438469183E-02 -4.898879659236E-01
H75  6.740098621579E-02 -2.529293263953E-01  4.042132699420E-01
H76 -6.740098621579E-02  2.529293263953E-01 -4.042132699420E-01
H77 -4.876661957611E-01 -2.162251615145E-01  1.397349073502E-01
H78  4.876661957611E-01  2.162251615145E-01 -1.397349073502E-01
H79  1.725759021819E-01 -3.868528952257E-01  2.680640539389E-01
H80 -1.725759021819E-01  3.868528952257E-01 -2.680640539389E-01
H81 -3.844882801232E-01 -3.510668507639E-01  3.983755329563E-03
H82  3.844882801232E-01  3.510668507639E-01 -3.983755329563E-03
H83  2.789468746872E-01  4.825197553370E-01  1.319969083336E-01
H84 -2.789468746872E-01 -4.825197553370E-01 -1.319969083336E-01


#===END

data_OPT_STEP_23

_symmetry_space_group_name_H-M 'P 1'
_cell_length_a      6.41468178
_cell_length_b      7.77957998
_cell_length_c     16.62711129
_cell_angle_alpha   98.295547
_cell_angle_beta   91.377024
_cell_angle_gamma   95.793916

loop_
_atom_site_label
_atom_site_fract_x
_atom_site_fract_y
_atom_site_fract_z
C1  3.849692838271E-02  2.328151038821E-01  3.269623237819E-01
C2 -3.849692838271E-02 -2.328151038821E-01 -3.269623237819E-01
C3  8.942568995890E-02  3.406906642899E-01  3.992626217396E-01
C4 -8.942568995890E-02 -3.406906642899E-01 -3.992626217396E-01
C5  2.947696858393E-01  4.379235035469E-01  4.135733812535E-01
C6 -2.947696858393E-01 -4.379235035469E-01 -4.135733812535E-01
C7  4.433072750227E-01  4.244212546740E-01  3.552141035894E-01
C8 -4.433072750227E-01 -4.244212546740E-01 -3.552141035894E-01
C9  3.976625628377E-01  3.116211269873E-01  2.781026418579E-01
C10 -3.976625628377E-01 -3.116211269873E-01 -2.781026418579E-01
C11  1.894205915620E-01  2.138280517034E-01  2.635567880740E-01
C12 -1.894205915620E-01 -2.138280517034E-01 -2.635567880740E-01
C13  1.416688546607E-01  1.033354466596E-01  1.899207805622E-01
C14 -1.416688546607E-01 -1.033354466596E-01 -1.899207805622E-01
C15  2.918665833247E-01  8.358903969510E-02  1.278934498137E-01
C16 -2.918665833247E-01 -8.358903969510E-02 -1.278934498137E-01
C17 -4.995116448629E-01  1.815257844919E-01  1.424833849415E-01
C18  4.995116448629E-01 -1.815257844919E-01 -1.424833849415E-01
C19 -4.536515678529E-01  2.943316037659E-01  2.180587488538E-01
C20  4.536515678529E-01 -2.943316037659E-01 -2.180587488538E-01
C21  2.453026336457E-01 -2.886462470429E-02  5.379743087230E-02
C22 -2.453026336457E-01  2.886462470429E-02 -5.379743087230E-02
C23  3.955790902274E-01 -4.901130028071E-02 -7.300734723297E-03
C24 -3.955790902274E-01  4.901130028071E-02  7.300734723297E-03
C25 -3.496285206352E-01  1.619953084300E-01  8.197941159401E-02
C26  3.496285206352E-01 -1.619953084300E-01 -8.197941159401E-02
C27 -4.463199424898E-01 -1.178396088449E-01  3.036832551098E-01
C28  4.463199424898E-01  1.178396088449E-01 -3.036832551098E-01
C29 -4.043297454716E-01 -7.628167895704E-02  3.861353832105E-01
C30  4.043297454716E-01  7.628167895704E-02 -3.861353832105E-01
C31 -2.170867159829E-01 -1.260068382921E-01  4.231456333335E-01
C32  2.170867159829E-01  1.260068382921E-01 -4.231456333335E-01
C33 -7.632372749994E-02 -2.139592467285E-01  3.762205968157E-01
C34  7.632372749994E-02  2.139592467285E-01 -3.762205968157E-01
C35 -1.128167836558E-01 -2.601639825498E-01  2.889334828068E-01
C36  1.128167836558E-01  2.601639825498E-01 -2.889334828068E-01
C37 -3.038307289651E-01 -2.117910673563E-01  2.518258049284E-01
C38  3.038307289651E-01  2.117910673563E-01 -2.518258049284E-01
C39 -3.429940586520E-01 -2.542001896483E-01  1.678067448986E-01
C40  3.429940586520E-01  2.542001896483E-01 -1.678067448986E-01
C41 -2.002271916970E-01 -3.443534536000E-01  1.167503925125E-01
C42  2.002271916970E-01  3.443534536000E-01 -1.167503925125E-01
C43 -8.684723684875E-03 -3.926431380736E-01  1.538755780688E-01
C44  8.684723684875E-03  3.926431380736E-01 -1.538755780688E-01
C45  2.835500854957E-02 -3.488329374206E-01  2.399760568728E-01
C46 -2.835500854957E-02  3.488329374206E-01 -2.399760568728E-01
C47 -2.383576187356E-01 -3.867531901078E-01  3.190932866640E-02
C48  2.383576187356E-01  3.867531901078E-01 -3.190932866640E-02
C49 -9.589667751244E-02 -4.758748306868E-01 -1.856677841164E-02
C50  9.589667751244E-02  4.758748306868E-01  1.856677841164E-02
C51  1.334350979524E-01 -4.812215393114E-01  1.040018307358E-01
C52 -1.334350979524E-01  4.812215393114E-01 -1.040018307358E-01
H53 -1.190647919223E-01  1.577862697567E-01  3.160964755278E-01
H54  1.190647919223E-01 -1.577862697567E-01 -3.160964755278E-01
H55 -2.717966581316E-02  3.531628906377E-01  4.476737469297E-01
H56  2.717966581316E-02 -3.531628906377E-01 -4.476737469297E-01
H57  3.333289167403E-01 -4.763706637330E-01  4.726295337863E-01
H58 -3.333289167403E-01  4.763706637330E-01 -4.726295337863E-01
H59 -3.991844362935E-01  4.998249075670E-01  3.662368217211E-01
H60  3.991844362935E-01 -4.998249075670E-01 -3.662368217211E-01
H61 -1.602650672782E-02  2.805400224754E-02  1.790857096578E-01
H62  1.602650672782E-02 -2.805400224754E-02 -1.790857096578E-01
H63 -2.954337377156E-01  3.685851479112E-01  2.291995477334E-01
H64  2.954337377156E-01 -3.685851479112E-01 -2.291995477334E-01
H65  8.741595909354E-02 -1.037951981723E-01  4.289593296678E-02
H66 -8.741595909354E-02  1.037951981723E-01 -4.289593296678E-02
H67 -1.915528820981E-01  2.365131904187E-01  9.301924606929E-02
H68  1.915528820981E-01 -2.365131904187E-01 -9.301924606929E-02
H69  4.099494613419E-01 -7.931600718063E-02  2.753883987150E-01
H70 -4.099494613419E-01  7.931600718063E-02 -2.753883987150E-01
H71  4.864408400741E-01 -1.152700267001E-03  4.246094638107E-01
H72 -4.864408400741E-01  1.152700267002E-03 -4.246094638107E-01
H73 -1.861302447099E-01 -9.153368839889E-02  4.899712110988E-01
H74  1.861302447099E-01  9.153368839889E-02 -4.899712110988E-01
H75  6.846652148432E-02 -2.513358588085E-01  4.043687366317E-01
H76 -6.846652148432E-02  2.513358588085E-01 -4.043687366317E-01
H77 -4.882332216987E-01 -2.174128905343E-01  1.396509399133E-01
H78  4.882332216987E-01  2.174128905343E-01 -1.396509399133E-01
H79  1.730071327380E-01 -3.863298556742E-01  2.682576332413E-01
H80 -1.730071327380E-01  3.863298556742E-01 -2.682576332413E-01
H81 -3.833371861036E-01 -3.495713577217E-01  3.756625791091E-03
H82  3.833371861036E-01  3.495713577217E-01 -3.756625791091E-03
H83  2.785021325149E-01  4.818558890587E-01  1.321988513124E-01
H84 -2.785021325149E-01 -4.818558890587E-01 -1.321988513124E-01


#===END

data_OPT_STEP_24

_symmetry_space_group_name_H-M 'P 1'
_cell_length_a      6.41148540
_cell_length_b      7.78514336
_cell_length_c     16.61608181
_cell_angle_alpha   98.278113
_cell_angle_beta   91.441668
_cell_angle_gamma   95.818210

loop_
_atom_site_label
_atom_site_fract_x
_atom_site_fract_y
_atom_site_fract_z
C1  3.926067106321E-02  2.327990642831E-01  3.271445143234E-01
C2 -3.926067106321E-02 -2.327990642831E-01 -3.271445143234E-01
C3  9.008612874483E-02  3.413573475851E-01  3.993023710467E-01
C4 -9.008612874483E-02 -3.413573475851E-01 -3.993023710467E-01
C5  2.955450896028E-01  4.386602367512E-01  4.135852222089E-01
C6 -2.955450896028E-01 -4.386602367512E-01 -4.135852222089E-01
C7  4.444988030063E-01  4.242049778468E-01  3.554144369219E-01
C8 -4.444988030063E-01 -4.242049778468E-01 -3.554144369219E-01
C9  3.984675864513E-01  3.115800263821E-01  2.782393841150E-01
C10 -3.984675864513E-01 -3.115800263821E-01 -2.782393841150E-01
C11  1.900190947188E-01  2.138939243196E-01  2.636783933829E-01
C12 -1.900190947188E-01 -2.138939243196E-01 -2.636783933829E-01
C13  1.419669873375E-01  1.035148073224E-01  1.899874007397E-01
C14 -1.419669873375E-01 -1.035148073224E-01 -1.899874007397E-01
C15  2.921508397023E-01  8.358390539761E-02  1.279644758152E-01
C16 -2.921508397023E-01 -8.358390539761E-02 -1.279644758152E-01
C17 -4.990474927026E-01  1.814691681600E-01  1.425584980953E-01
C18  4.990474927026E-01 -1.814691681600E-01 -1.425584980953E-01
C19 -4.528454676826E-01  2.940709631441E-01  2.182075701319E-01
C20  4.528454676826E-01 -2.940709631441E-01 -2.182075701319E-01
C21  2.453580185585E-01 -2.892043829069E-02  5.385360296754E-02
C22 -2.453580185585E-01  2.892043829069E-02 -5.385360296754E-02
C23  3.955859117683E-01 -4.915137239620E-02 -7.258486447547E-03
C24 -3.955859117683E-01  4.915137239620E-02  7.258486447547E-03
C25 -3.495130253714E-01  1.624219238439E-01  8.189475116288E-02
C26  3.495130253714E-01 -1.624219238439E-01 -8.189475116288E-02
C27 -4.460103032497E-01 -1.179979900001E-01  3.036962273320E-01
C28  4.460103032497E-01  1.179979900001E-01 -3.036962273320E-01
C29 -4.038700921075E-01 -7.640557652905E-02  3.862041446557E-01
C30  4.038700921075E-01  7.640557652905E-02 -3.862041446557E-01
C31 -2.165924728658E-01 -1.261391212852E-01  4.233235054837E-01
C32  2.165924728658E-01  1.261391212852E-01 -4.233235054837E-01
C33 -7.549231875695E-02 -2.134925526047E-01  3.763648674751E-01
C34  7.549231875695E-02  2.134925526047E-01 -3.763648674751E-01
C35 -1.123182447258E-01 -2.600049864750E-01  2.890338791876E-01
C36  1.123182447258E-01  2.600049864750E-01 -2.890338791876E-01
C37 -3.034948936585E-01 -2.117600143907E-01  2.518430999527E-01
C38  3.034948936585E-01  2.117600143907E-01 -2.518430999527E-01
C39 -3.427158315257E-01 -2.541243896210E-01  1.677582787856E-01
C40  3.427158315257E-01  2.541243896210E-01 -1.677582787856E-01
C41 -2.004658217874E-01 -3.449206143710E-01  1.167716622681E-01
C42  2.004658217874E-01  3.449206143710E-01 -1.167716622681E-01
C43 -8.758555717195E-03 -3.930611787163E-01  1.539846566911E-01
C44  8.758555717195E-03  3.930611787163E-01 -1.539846566911E-01
C45  2.850956128289E-02 -3.491039466222E-01  2.401362195307E-01
C46 -2.850956128289E-02  3.491039466222E-01 -2.401362195307E-01
C47 -2.385544122214E-01 -3.870965536994E-01  3.185298157963E-02
C48  2.385544122214E-01  3.870965536994E-01 -3.185298157963E-02
C49 -9.600703969393E-02 -4.759957492369E-01 -1.860664884717E-02
C50  9.600703969393E-02  4.759957492369E-01  1.860664884717E-02
C51  1.334602915966E-01 -4.814105139706E-01  1.041218496839E-01
C52 -1.334602915966E-01  4.814105139706E-01 -1.041218496839E-01
H53 -1.184434448890E-01  1.577539439546E-01  3.163133682873E-01
H54  1.184434448890E-01 -1.577539439546E-01 -3.163133682873E-01
H55 -2.657312525293E-02  3.542028266299E-01  4.476490195964E-01
H56  2.657312525293E-02 -3.542028266299E-01 -4.476490195964E-01
H57  3.339863973930E-01 -4.751245638887E-01  4.725398171681E-01
H58 -3.339863973930E-01  4.751245638887E-01 -4.725398171681E-01
H59 -3.975361188891E-01  4.989283344573E-01  3.665730927925E-01
H60  3.975361188891E-01 -4.989283344573E-01 -3.665730927925E-01
H61 -1.595903489213E-02  2.834491866504E-02  1.791380140006E-01
H62  1.595903489213E-02 -2.834491866504E-02 -1.791380140006E-01
H63 -2.946527769795E-01  3.687443157245E-01  2.292555076002E-01
H64  2.946527769795E-01 -3.687443157245E-01 -2.292555076002E-01
H65  8.724816098337E-02 -1.036960491904E-01  4.292155411818E-02
H66 -8.724816098337E-02  1.036960491904E-01 -4.292155411818E-02
H67 -1.914418706619E-01  2.371324464952E-01  9.287619621345E-02
H68  1.914418706619E-01 -2.371324464952E-01 -9.287619621345E-02
H69  4.103080474410E-01 -7.931031803646E-02  2.753190301758E-01
H70 -4.103080474410E-01  7.931031803646E-02 -2.753190301758E-01
H71  4.867723637842E-01 -1.418506215665E-03  4.246215250875E-01
H72 -4.867723637842E-01  1.418506215665E-03 -4.246215250875E-01
H73 -1.860224463963E-01 -9.235619837587E-02  4.902227539601E-01
H74  1.860224463963E-01  9.235619837587E-02 -4.902227539601E-01
H75  6.963905743626E-02 -2.505836545624E-01  4.045100455358E-01
H76 -6.963905743626E-02  2.505836545624E-01 -4.045100455358E-01
H77 -4.879820702589E-01 -2.172917294194E-01  1.395204972094E-01
H78  4.879820702589E-01  2.172917294194E-01 -1.395204972094E-01
H79  1.732879086497E-01 -3.864127290167E-01  2.684859938332E-01
H80 -1.732879086497E-01  3.864127290167E-01 -2.684859938332E-01
H81 -3.836932852373E-01 -3.501131945837E-01  3.642208260078E-03
H82  3.836932852373E-01  3.501131945837E-01 -3.642208260078E-03
H83  2.786644196124E-01  4.818403621420E-01  1.323769771660E-01
H84 -2.786644196124E-01 -4.818403621420E-01 -1.323769771660E-01


#===END

data_OPT_STEP_25

_symmetry_space_group_name_H-M 'P 1'
_cell_length_a      6.41071821
_cell_length_b      7.79339942
_cell_length_c     16.60720767
_cell_angle_alpha   98.287428
_cell_angle_beta   91.509642
_cell_angle_gamma   95.843188

loop_
_atom_site_label
_atom_site_fract_x
_atom_site_fract_y
_atom_site_fract_z
C1  4.006296040523E-02  2.330757352224E-01  3.272630841555E-01
C2 -4.006296040523E-02 -2.330757352224E-01 -3.272630841555E-01
C3  9.086412236305E-02  3.421506777896E-01  3.993189775965E-01
C4 -9.086412236305E-02 -3.421506777896E-01 -3.993189775965E-01
C5  2.963416717470E-01  4.395352781864E-01  4.135843121522E-01
C6 -2.963416717470E-01 -4.395352781864E-01 -4.135843121522E-01
C7  4.452715841501E-01  4.247954523769E-01  3.554469945529E-01
C8 -4.452715841501E-01 -4.247954523769E-01 -3.554469945529E-01
C9  3.991450072276E-01  3.118284959282E-01  2.783183997144E-01
C10 -3.991450072276E-01 -3.118284959282E-01 -2.783183997144E-01
C11  1.907469684182E-01  2.139317895648E-01  2.638070212470E-01
C12 -1.907469684182E-01 -2.139317895648E-01 -2.638070212470E-01
C13  1.424549032877E-01  1.035752039048E-01  1.900741273988E-01
C14 -1.424549032877E-01 -1.035752039048E-01 -1.900741273988E-01
C15  2.925219971190E-01  8.354424738103E-02  1.280363841015E-01
C16 -2.925219971190E-01 -8.354424738103E-02 -1.280363841015E-01
C17 -4.986169681736E-01  1.814542655443E-01  1.426307846504E-01
C18  4.986169681736E-01 -1.814542655443E-01 -1.426307846504E-01
C19 -4.523545691815E-01  2.943170843772E-01  2.182494404855E-01
C20  4.523545691815E-01 -2.943170843772E-01 -2.182494404855E-01
C21  2.454909610725E-01 -2.893727580342E-02  5.388768375621E-02
C22 -2.454909610725E-01  2.893727580342E-02 -5.388768375621E-02
C23  3.954447732749E-01 -4.896376473929E-02 -7.309088472829E-03
C24 -3.954447732749E-01  4.896376473929E-02  7.309088472829E-03
C25 -3.491659894310E-01  1.623106527091E-01  8.196450282519E-02
C26  3.491659894310E-01 -1.623106527091E-01 -8.196450282519E-02
C27 -4.455523312662E-01 -1.180835537132E-01  3.037106743833E-01
C28  4.455523312662E-01  1.180835537132E-01 -3.037106743833E-01
C29 -4.033694349576E-01 -7.657001131471E-02  3.862911182188E-01
C30  4.033694349576E-01  7.657001131471E-02 -3.862911182188E-01
C31 -2.160110867135E-01 -1.261252654511E-01  4.234954805707E-01
C32  2.160110867135E-01  1.261252654511E-01 -4.234954805707E-01
C33 -7.499419878338E-02 -2.133934405472E-01  3.765270314945E-01
C34  7.499419878338E-02  2.133934405472E-01 -3.765270314945E-01
C35 -1.118136815937E-01 -2.597363416861E-01  2.891222859665E-01
C36  1.118136815937E-01  2.597363416861E-01 -2.891222859665E-01
C37 -3.031212356303E-01 -2.117415869149E-01  2.518605530715E-01
C38  3.031212356303E-01  2.117415869149E-01 -2.518605530715E-01
C39 -3.422721051656E-01 -2.539214381982E-01  1.676951309573E-01
C40  3.422721051656E-01  2.539214381982E-01 -1.676951309573E-01
C41 -1.998652974989E-01 -3.443248889376E-01  1.167057509055E-01
C42  1.998652974989E-01  3.443248889376E-01 -1.167057509055E-01
C43 -8.251257733207E-03 -3.925140875059E-01  1.540261176398E-01
C44  8.251257733207E-03  3.925140875059E-01 -1.540261176398E-01
C45  2.905720379977E-02 -3.485914521947E-01  2.402431964040E-01
C46 -2.905720379977E-02  3.485914521947E-01 -2.402431964040E-01
C47 -2.381119252655E-01 -3.866523024086E-01  3.173082738595E-02
C48  2.381119252655E-01  3.866523024086E-01 -3.173082738595E-02
C49 -9.589606225480E-02 -4.758853578684E-01 -1.866879034394E-02
C50  9.589606225480E-02  4.758853578684E-01  1.866879034394E-02
C51  1.335069328224E-01 -4.813714697915E-01  1.042356388031E-01
C52 -1.335069328224E-01  4.813714697915E-01 -1.042356388031E-01
H53 -1.177023015582E-01  1.580089293673E-01  3.164619404586E-01
H54  1.177023015582E-01 -1.580089293673E-01 -3.164619404586E-01
H55 -2.579619669717E-02  3.553575251758E-01  4.476091171139E-01
H56  2.579619669717E-02 -3.553575251758E-01 -4.476091171139E-01
H57  3.346678753173E-01 -4.737970545459E-01  4.724640038487E-01
H58 -3.346678753173E-01  4.737970545459E-01 -4.724640038487E-01
H59 -3.967345775765E-01  4.995501861358E-01  3.665800843119E-01
H60  3.967345775765E-01 -4.995501861358E-01 -3.665800843119E-01
H61 -1.567749005440E-02  2.862943053481E-02  1.791799787349E-01
H62  1.567749005440E-02 -2.862943053481E-02 -1.791799787349E-01
H63 -2.941369324331E-01  3.691473588344E-01  2.292701525687E-01
H64  2.941369324331E-01 -3.691473588344E-01 -2.292701525687E-01
H65  8.733396823490E-02 -1.037614149838E-01  4.297110676227E-02
H66 -8.733396823490E-02  1.037614149838E-01 -4.297110676227E-02
H67 -1.909951845944E-01  2.369384091990E-01  9.297057197628E-02
H68  1.909951845944E-01 -2.369384091990E-01 -9.297057197628E-02
H69  4.107832906478E-01 -7.938739904581E-02  2.752646643950E-01
H70 -4.107832906478E-01  7.938739904581E-02 -2.752646643950E-01
H71  4.872349966286E-01 -1.699282868476E-03  4.246558568058E-01
H72 -4.872349966286E-01  1.699282868476E-03 -4.246558568058E-01
H73 -1.853609733281E-01 -9.233776947085E-02  4.904275113476E-01
H74  1.853609733281E-01  9.233776947085E-02 -4.904275113476E-01
H75  7.040111069738E-02 -2.502565554705E-01  4.046496783251E-01
H76 -7.040111069738E-02  2.502565554705E-01 -4.046496783251E-01
H77 -4.874515273382E-01 -2.169973245722E-01  1.393737811772E-01
H78  4.874515273382E-01  2.169973245722E-01 -1.393737811772E-01
H79  1.739140037915E-01 -3.856874052574E-01  2.686612378169E-01
H80 -1.739140037915E-01  3.856874052574E-01 -2.686612378169E-01
H81 -3.832504441557E-01 -3.497353942978E-01  3.446694665022E-03
H82  3.832504441557E-01  3.497353942978E-01 -3.446694665022E-03
H83  2.786002495695E-01  4.817890454223E-01  1.325751025624E-01
H84 -2.786002495695E-01 -4.817890454223E-01 -1.325751025624E-01


#===END

data_OPT_STEP_26

_symmetry_space_group_name_H-M 'P 1'
_cell_length_a      6.40883754
_cell_length_b      7.80488445
_cell_length_c     16.58872175
_cell_angle_alpha   98.319048
_cell_angle_beta   91.698665
_cell_angle_gamma   95.826840

loop_
_atom_site_label
_atom_site_fract_x
_atom_site_fract_y
_atom_site_fract_z
C1  4.098062713279E-02  2.338097795154E-01  3.272581651347E-01
C2 -4.098062713279E-02 -2.338097795154E-01 -3.272581651347E-01
C3  9.192072595057E-02  3.433083021822E-01  3.993110501657E-01
C4 -9.192072595057E-02 -3.433083021822E-01 -3.993110501657E-01
C5  2.972872914384E-01  4.410222996718E-01  4.136306469294E-01
C6 -2.972872914384E-01 -4.410222996718E-01 -4.136306469294E-01
C7  4.459167923578E-01  4.263049566300E-01  3.554839828212E-01
C8 -4.459167923578E-01 -4.263049566300E-01 -3.554839828212E-01
C9  3.997041174550E-01  3.127632659627E-01  2.783713759334E-01
C10 -3.997041174550E-01 -3.127632659627E-01 -2.783713759334E-01
C11  1.914802917971E-01  2.144250629124E-01  2.638349749015E-01
C12 -1.914802917971E-01 -2.144250629124E-01 -2.638349749015E-01
C13  1.430718399901E-01  1.037160465009E-01  1.900678135957E-01
C14 -1.430718399901E-01 -1.037160465009E-01 -1.900678135957E-01
C15  2.926610684356E-01  8.412508233851E-02  1.279187429062E-01
C16 -2.926610684356E-01 -8.412508233851E-02 -1.279187429062E-01
C17 -4.985944527646E-01  1.823759241172E-01  1.425687224022E-01
C18  4.985944527646E-01 -1.823759241172E-01 -1.425687224022E-01
C19 -4.522301246727E-01  2.955452810633E-01  2.182277187061E-01
C20  4.522301246727E-01 -2.955452810633E-01 -2.182277187061E-01
C21  2.453018527110E-01 -2.824543107573E-02  5.363158106669E-02
C22 -2.453018527110E-01  2.824543107573E-02 -5.363158106669E-02
C23  3.953963526527E-01 -4.893640555952E-02 -7.385285711170E-03
C24 -3.953963526527E-01  4.893640555952E-02  7.385285711170E-03
C25 -3.491739877432E-01  1.629398392862E-01  8.199614179098E-02
C26  3.491739877432E-01 -1.629398392862E-01 -8.199614179098E-02
C27 -4.442350438808E-01 -1.173668751709E-01  3.036938701703E-01
C28  4.442350438808E-01  1.173668751709E-01 -3.036938701703E-01
C29 -4.020371745005E-01 -7.626915967332E-02  3.864541649517E-01
C30  4.020371745005E-01  7.626915967332E-02 -3.864541649517E-01
C31 -2.146379888933E-01 -1.258971254028E-01  4.238641048576E-01
C32  2.146379888933E-01  1.258971254028E-01 -4.238641048576E-01
C33 -7.358652787259E-02 -2.127894009457E-01  3.768783305543E-01
C34  7.358652787259E-02  2.127894009457E-01 -3.768783305543E-01
C35 -1.104307531361E-01 -2.587262301850E-01  2.893054409715E-01
C36  1.104307531361E-01  2.587262301850E-01 -2.893054409715E-01
C37 -3.017873306855E-01 -2.106823516452E-01  2.518426372460E-01
C38  3.017873306855E-01  2.106823516452E-01 -2.518426372460E-01
C39 -3.414185054731E-01 -2.532420545398E-01  1.675532637588E-01
C40  3.414185054731E-01  2.532420545398E-01 -1.675532637588E-01
C41 -1.991950780391E-01 -3.437384799845E-01  1.166183583041E-01
C42  1.991950780391E-01  3.437384799845E-01 -1.166183583041E-01
C43 -7.273664036545E-03 -3.915767498529E-01  1.541414563436E-01
C44  7.273664036545E-03  3.915767498529E-01 -1.541414563436E-01
C45  3.038954344117E-02 -3.474245978225E-01  2.404860889076E-01
C46 -3.038954344117E-02  3.474245978225E-01 -2.404860889076E-01
C47 -2.383563429574E-01 -3.871216693603E-01  3.156596201557E-02
C48  2.383563429574E-01  3.871216693603E-01 -3.156596201557E-02
C49 -9.613332808236E-02 -4.761795893599E-01 -1.876794946613E-02
C50  9.613332808236E-02  4.761795893599E-01  1.876794946613E-02
C51  1.343386968435E-01 -4.804707434337E-01  1.044361651689E-01
C52 -1.343386968435E-01  4.804707434337E-01 -1.044361651689E-01
H53 -1.166815462727E-01  1.584229309452E-01  3.164939155336E-01
H54  1.166815462727E-01 -1.584229309452E-01 -3.164939155336E-01
H55 -2.478770156998E-02  3.571732456046E-01  4.474568728320E-01
H56  2.478770156998E-02 -3.571732456046E-01 -4.474568728320E-01
H57  3.353885676417E-01 -4.715765165291E-01  4.724345087050E-01
H58 -3.353885676417E-01  4.715765165291E-01 -4.724345087050E-01
H59 -3.962571635590E-01 -4.985552264586E-01  3.665724827900E-01
H60  3.962571635590E-01  4.985552264586E-01 -3.665724827900E-01
H61 -1.495513437191E-02  2.839317375319E-02  1.791994297803E-01
H62  1.495513437191E-02 -2.839317375319E-02 -1.791994297803E-01
H63 -2.939084612210E-01  3.704045120168E-01  2.293336907398E-01
H64  2.939084612210E-01 -3.704045120168E-01 -2.293336907398E-01
H65  8.696738275682E-02 -1.028648215971E-01  4.258379331538E-02
H66 -8.696738275682E-02  1.028648215971E-01 -4.258379331538E-02
H67 -1.910642327990E-01  2.377797950823E-01  9.303986414785E-02
H68  1.910642327990E-01 -2.377797950823E-01 -9.303986414785E-02
H69  4.119906351762E-01 -7.872107812905E-02  2.751122714960E-01
H70 -4.119906351762E-01  7.872107812905E-02 -2.751122714960E-01
H71  4.886316183194E-01 -1.453041048206E-03  4.247376768107E-01
H72 -4.886316183194E-01  1.453041048206E-03 -4.247376768107E-01
H73 -1.836035301680E-01 -9.185881953839E-02  4.908630545778E-01
H74  1.836035301680E-01  9.185881953839E-02 -4.908630545778E-01
H75  7.225965553331E-02 -2.493767841175E-01  4.050015008233E-01
H76 -7.225965553331E-02  2.493767841175E-01 -4.050015008233E-01
H77 -4.865858303634E-01 -2.162320698670E-01  1.390670078125E-01
H78  4.865858303634E-01  2.162320698670E-01 -1.390670078125E-01
H79  1.751805823325E-01 -3.845945460464E-01  2.690773800518E-01
H80 -1.751805823325E-01  3.845945460464E-01 -2.690773800518E-01
H81 -3.838148330764E-01 -3.506523925504E-01  3.145092664753E-03
H82  3.838148330764E-01  3.506523925504E-01 -3.145092664753E-03
H83  2.796271195193E-01  4.829600724511E-01  1.329265078102E-01
H84 -2.796271195193E-01 -4.829600724511E-01 -1.329265078102E-01


#===END

data_OPT_STEP_27

_symmetry_space_group_name_H-M 'P 1'
_cell_length_a      6.42427401
_cell_length_b      7.81248230
_cell_length_c     16.57949478
_cell_angle_alpha   98.403233
_cell_angle_beta   91.751458
_cell_angle_gamma   95.916930

loop_
_atom_site_label
_atom_site_fract_x
_atom_site_fract_y
_atom_site_fract_z
C1  4.314969399405E-02  2.346335522882E-01  3.274832795678E-01
C2 -4.314969399405E-02 -2.346335522882E-01 -3.274832795678E-01
C3  9.440060946169E-02  3.442180587863E-01  3.996086802769E-01
C4 -9.440060946169E-02 -3.442180587863E-01 -3.996086802769E-01
C5  2.991599296862E-01  4.425528507283E-01  4.138502430867E-01
C6 -2.991599296862E-01 -4.425528507283E-01 -4.138502430867E-01
C7  4.474435202277E-01  4.273489156414E-01  3.557517195510E-01
C8 -4.474435202277E-01 -4.273489156414E-01 -3.557517195510E-01
C9  4.012742061995E-01  3.130187920256E-01  2.787046199238E-01
C10 -4.012742061995E-01 -3.130187920256E-01 -2.787046199238E-01
C11  1.931766944310E-01  2.149322392365E-01  2.640448441490E-01
C12 -1.931766944310E-01 -2.149322392365E-01 -2.640448441490E-01
C13  1.444729011633E-01  1.042148288245E-01  1.901709920600E-01
C14 -1.444729011633E-01 -1.042148288245E-01 -1.901709920600E-01
C15  2.937997959898E-01  8.399818263253E-02  1.281006759093E-01
C16 -2.937997959898E-01 -8.399818263253E-02 -1.281006759093E-01
C17 -4.975907676869E-01  1.819907953335E-01  1.428695884511E-01
C18  4.975907676869E-01 -1.819907953335E-01 -1.428695884511E-01
C19 -4.509891083628E-01  2.953064681167E-01  2.186088317183E-01
C20  4.509891083628E-01 -2.953064681167E-01 -2.186088317183E-01
C21  2.462734445634E-01 -2.862870198815E-02  5.376888897129E-02
C22 -2.462734445634E-01  2.862870198815E-02 -5.376888897129E-02
C23  3.955942864914E-01 -4.902607922009E-02 -7.393607273619E-03
C24 -3.955942864914E-01  4.902607922009E-02  7.393607273619E-03
C25 -3.486264689409E-01  1.622936227912E-01  8.229936180140E-02
C26  3.486264689409E-01 -1.622936227912E-01 -8.229936180140E-02
C27 -4.426778910056E-01 -1.168091049207E-01  3.037355261511E-01
C28  4.426778910056E-01  1.168091049207E-01 -3.037355261511E-01
C29 -4.007554283522E-01 -7.598171944860E-02  3.866257802439E-01
C30  4.007554283522E-01  7.598171944860E-02 -3.866257802439E-01
C31 -2.137681981764E-01 -1.252355802126E-01  4.241266546058E-01
C32  2.137681981764E-01  1.252355802126E-01 -4.241266546058E-01
C33 -7.309291833808E-02 -2.118823103663E-01  3.771062786195E-01
C34  7.309291833808E-02  2.118823103663E-01 -3.771062786195E-01
C35 -1.101330957139E-01 -2.582613229954E-01  2.894630356373E-01
C36  1.101330957139E-01  2.582613229954E-01 -2.894630356373E-01
C37 -3.006190308837E-01 -2.099606672505E-01  2.518599008025E-01
C38  3.006190308837E-01  2.099606672505E-01 -2.518599008025E-01
C39 -3.403257182992E-01 -2.529245278194E-01  1.674896090742E-01
C40  3.403257182992E-01  2.529245278194E-01 -1.674896090742E-01
C41 -1.984564147335E-01 -3.433674276880E-01  1.165730788650E-01
C42  1.984564147335E-01  3.433674276880E-01 -1.165730788650E-01
C43 -7.511553834852E-03 -3.916015173018E-01  1.542680165167E-01
C44  7.511553834852E-03  3.916015173018E-01 -1.542680165167E-01
C45  3.001068035478E-02 -3.473080278807E-01  2.407057939241E-01
C46 -3.001068035478E-02  3.473080278807E-01 -2.407057939241E-01
C47 -2.372963280843E-01 -3.866426107626E-01  3.140937414926E-02
C48  2.372963280843E-01  3.866426107626E-01 -3.140937414926E-02
C49 -9.560320582604E-02 -4.759226565355E-01 -1.886163965214E-02
C50  9.560320582604E-02  4.759226565355E-01  1.886163965214E-02
C51  1.335918413098E-01 -4.806546138481E-01  1.046279958384E-01
C52 -1.335918413098E-01  4.806546138481E-01 -1.046279958384E-01
H53 -1.143323790110E-01  1.592615553658E-01  3.167221305636E-01
H54  1.143323790110E-01 -1.592615553658E-01 -3.167221305636E-01
H55 -2.211927581382E-02  3.587128639048E-01  4.476543356137E-01
H56  2.211927581382E-02 -3.587128639048E-01 -4.476543356137E-01
H57  3.368123741216E-01 -4.688994132451E-01  4.724799666684E-01
H58 -3.368123741216E-01  4.688994132451E-01 -4.724799666684E-01
H59 -3.951333575107E-01 -4.971282182047E-01  3.667528123899E-01
H60  3.951333575107E-01  4.971282182047E-01 -3.667528123899E-01
H61 -1.355246568504E-02  2.922552389448E-02  1.792086795579E-01
H62  1.355246568504E-02 -2.922552389448E-02 -1.792086795579E-01
H63 -2.926308456563E-01  3.698420608436E-01  2.298297882154E-01
H64  2.926308456563E-01 -3.698420608436E-01 -2.298297882154E-01
H65  8.836555972832E-02 -1.037102165677E-01  4.281453701473E-02
H66 -8.836555972832E-02  1.037102165677E-01 -4.281453701473E-02
H67 -1.905518727803E-01  2.368562830207E-01  9.344357705680E-02
H68  1.905518727803E-01 -2.368562830207E-01 -9.344357705680E-02
H69  4.141148061016E-01 -7.796427728521E-02  2.750629857452E-01
H70 -4.141148061016E-01  7.796427728521E-02 -2.750629857452E-01
H71  4.900479262217E-01 -1.554354766092E-03  4.248996989157E-01
H72 -4.900479262217E-01  1.554354766092E-03 -4.248996989157E-01
H73 -1.825712492371E-01 -9.083480602094E-02  4.911616490757E-01
H74  1.825712492371E-01  9.083480602094E-02 -4.911616490757E-01
H75  7.297444867685E-02 -2.477521379226E-01  4.051406106256E-01
H76 -7.297444867685E-02  2.477521379226E-01 -4.051406106256E-01
H77 -4.847633127957E-01 -2.155589259906E-01  1.388667881446E-01
H78  4.847633127957E-01  2.155589259906E-01 -1.388667881446E-01
H79  1.739717742053E-01 -3.849252668418E-01  2.694455006345E-01
H80 -1.739717742053E-01  3.849252668418E-01 -2.694455006345E-01
H81 -3.817819752677E-01 -3.494776120776E-01  2.818943404646E-03
H82  3.817819752677E-01  3.494776120776E-01 -2.818943404646E-03
H83  2.782119961087E-01  4.825480972758E-01  1.332594186613E-01
H84 -2.782119961087E-01 -4.825480972758E-01 -1.332594186613E-01


#===END

data_OPT_STEP_28

_symmetry_space_group_name_H-M 'P 1'
_cell_length_a      6.42119516
_cell_length_b      7.81069698
_cell_length_c     16.57493290
_cell_angle_alpha   98.396773
_cell_angle_beta   91.793457
_cell_angle_gamma   95.895580

loop_
_atom_site_label
_atom_site_fract_x
_atom_site_fract_y
_atom_site_fract_z
C1  4.314393953535E-02  2.348322062320E-01  3.274700870405E-01
C2 -4.314393953535E-02 -2.348322062320E-01 -3.274700870405E-01
C3  9.428714547570E-02  3.447610774171E-01  3.995467977622E-01
C4 -9.428714547570E-02 -3.447610774171E-01 -3.995467977622E-01
C5  2.991368143918E-01  4.431155806244E-01  4.138245077995E-01
C6 -2.991368143918E-01 -4.431155806244E-01 -4.138245077995E-01
C7  4.475001019753E-01  4.277729019448E-01  3.557562576853E-01
C8 -4.475001019753E-01 -4.277729019448E-01 -3.557562576853E-01
C9  4.013539434761E-01  3.132635134473E-01  2.787188837769E-01
C10 -4.013539434761E-01 -3.132635134473E-01 -2.787188837769E-01
C11  1.932693946872E-01  2.149835156370E-01  2.640703118718E-01
C12 -1.932693946872E-01 -2.149835156370E-01 -2.640703118718E-01
C13  1.445297620097E-01  1.041924584306E-01  1.901922339631E-01
C14 -1.445297620097E-01 -1.041924584306E-01 -1.901922339631E-01
C15  2.939146404899E-01  8.387063998833E-02  1.281479425828E-01
C16 -2.939146404899E-01 -8.387063998833E-02 -1.281479425828E-01
C17 -4.974671889968E-01  1.819982558796E-01  1.429103071031E-01
C18  4.974671889968E-01 -1.819982558796E-01 -1.429103071031E-01
C19 -4.508512850857E-01  2.954543967050E-01  2.186459052624E-01
C20  4.508512850857E-01 -2.954543967050E-01 -2.186459052624E-01
C21  2.463558615274E-01 -2.884284683480E-02  5.381183229214E-02
C22 -2.463558615274E-01  2.884284683480E-02 -5.381183229214E-02
C23  3.955987181424E-01 -4.910490579274E-02 -7.388224951308E-03
C24 -3.955987181424E-01  4.910490579274E-02  7.388224951308E-03
C25 -3.485729788151E-01  1.623959545889E-01  8.231302035680E-02
C26  3.485729788151E-01 -1.623959545889E-01 -8.231302035680E-02
C27 -4.429264972000E-01 -1.169921616178E-01  3.037401317797E-01
C28  4.429264972000E-01  1.169921616178E-01 -3.037401317797E-01
C29 -4.007358259202E-01 -7.596256020410E-02  3.866408943520E-01
C30  4.007358259202E-01  7.596256020410E-02 -3.866408943520E-01
C31 -2.135560570141E-01 -1.251787948289E-01  4.241764115922E-01
C32  2.135560570141E-01  1.251787948289E-01 -4.241764115922E-01
C33 -7.289728832053E-02 -2.119236499311E-01  3.771831240001E-01
C34  7.289728832053E-02  2.119236499311E-01 -3.771831240001E-01
C35 -1.100475301538E-01 -2.583064565915E-01  2.895118491449E-01
C36  1.100475301538E-01  2.583064565915E-01 -2.895118491449E-01
C37 -3.008873172143E-01 -2.102718816473E-01  2.518824562885E-01
C38  3.008873172143E-01  2.102718816473E-01 -2.518824562885E-01
C39 -3.406411745298E-01 -2.531593558609E-01  1.674844259583E-01
C40  3.406411745298E-01  2.531593558609E-01 -1.674844259583E-01
C41 -1.986038189080E-01 -3.434729817137E-01  1.165757599902E-01
C42  1.986038189080E-01  3.434729817137E-01 -1.165757599902E-01
C43 -7.345341166291E-03 -3.915115383060E-01  1.542947649837E-01
C44  7.345341166291E-03  3.915115383060E-01 -1.542947649837E-01
C45  3.039862497184E-02 -3.470278043756E-01  2.407472829001E-01
C46 -3.039862497184E-02  3.470278043756E-01 -2.407472829001E-01
C47 -2.373975340915E-01 -3.865453593785E-01  3.137487891325E-02
C48  2.373975340915E-01  3.865453593785E-01 -3.137487891325E-02
C49 -9.572235644816E-02 -4.759606540532E-01 -1.887675678549E-02
C50  9.572235644816E-02  4.759606540532E-01  1.887675678549E-02
C51  1.338514007935E-01 -4.805430796455E-01  1.046668033774E-01
C52 -1.338514007935E-01  4.805430796455E-01 -1.046668033774E-01
H53 -1.143333963050E-01  1.593730829136E-01  3.166971097717E-01
H54  1.143333963050E-01 -1.593730829136E-01 -3.166971097717E-01
H55 -2.225323372412E-02  3.592634729737E-01  4.475894323204E-01
H56  2.225323372412E-02 -3.592634729737E-01 -4.475894323204E-01
H57  3.367337253826E-01 -4.681881865424E-01  4.724543122583E-01
H58 -3.367337253826E-01  4.681881865424E-01 -4.724543122583E-01
H59 -3.951070400036E-01 -4.965218398356E-01  3.667332873485E-01
H60  3.951070400036E-01  4.965218398356E-01 -3.667332873485E-01
H61 -1.353187941164E-02  2.921003793646E-02  1.792064045290E-01
H62  1.353187941164E-02 -2.921003793646E-02 -1.792064045290E-01
H63 -2.925644963871E-01  3.701425539182E-01  2.298421703860E-01
H64  2.925644963871E-01 -3.701425539182E-01 -2.298421703860E-01
H65  8.844790565549E-02 -1.040186281208E-01  4.286129258883E-02
H66 -8.844790565549E-02  1.040186281208E-01 -4.286129258883E-02
H67 -1.904910916953E-01  2.370690328932E-01  9.345069839267E-02
H68  1.904910916953E-01 -2.370690328932E-01 -9.345069839267E-02
H69  4.137357814995E-01 -7.819283290108E-02  2.750511528856E-01
H70 -4.137357814995E-01  7.819283290108E-02 -2.750511528856E-01
H71  4.900667025858E-01 -1.598461529707E-03  4.249454492118E-01
H72 -4.900667025858E-01  1.598461529707E-03 -4.249454492118E-01
H73 -1.824508145411E-01 -9.097008621019E-02  4.912566817246E-01
H74  1.824508145411E-01  9.097008621019E-02 -4.912566817246E-01
H75  7.334550179080E-02 -2.476942816992E-01  4.052182182940E-01
H76 -7.334550179080E-02  2.476942816992E-01 -4.052182182940E-01
H77 -4.852488052638E-01 -2.159349924043E-01  1.388404479552E-01
H78  4.852488052638E-01  2.159349924043E-01 -1.388404479552E-01
H79  1.746567200567E-01 -3.843657892880E-01  2.694955675705E-01
H80 -1.746567200567E-01  3.843657892880E-01 -2.694955675705E-01
H81 -3.819649653024E-01 -3.493556994144E-01  2.749614986337E-03
H82  3.819649653024E-01  3.493556994144E-01 -2.749614986337E-03
H83  2.786081821564E-01  4.827117693999E-01  1.333278326949E-01
H84 -2.786081821564E-01 -4.827117693999E-01 -1.333278326949E-01


#===END

data_OPT_STEP_29

_symmetry_space_group_name_H-M 'P 1'
_cell_length_a      6.42782331
_cell_length_b      7.81770009
_cell_length_c     16.58216219
_cell_angle_alpha   98.493117
_cell_angle_beta   91.761315
_cell_angle_gamma   95.901149

loop_
_atom_site_label
_atom_site_fract_x
_atom_site_fract_y
_atom_site_fract_z
C1  4.332256319515E-02  2.344694295811E-01  3.275457180421E-01
C2 -4.332256319515E-02 -2.344694295811E-01 -3.275457180421E-01
C3  9.410740196741E-02  3.447353093674E-01  3.995870768650E-01
C4 -9.410740196741E-02 -3.447353093674E-01 -3.995870768650E-01
C5  2.987587501122E-01  4.430061044374E-01  4.139381669886E-01
C6 -2.987587501122E-01 -4.430061044374E-01 -4.139381669886E-01
C7  4.470021956796E-01  4.277521813853E-01  3.558627031393E-01
C8 -4.470021956796E-01 -4.277521813853E-01 -3.558627031393E-01
C9  4.011141764827E-01  3.131195468242E-01  2.788209219222E-01
C10 -4.011141764827E-01 -3.131195468242E-01 -2.788209219222E-01
C11  1.934395187646E-01  2.145534646314E-01  2.641860673805E-01
C12 -1.934395187646E-01 -2.145534646314E-01 -2.641860673805E-01
C13  1.448684408019E-01  1.037542250857E-01  1.902800481153E-01
C14 -1.448684408019E-01 -1.037542250857E-01 -1.902800481153E-01
C15  2.940137664197E-01  8.374564977568E-02  1.281766262627E-01
C16 -2.940137664197E-01 -8.374564977568E-02 -1.281766262627E-01
C17 -4.975584614853E-01  1.817583581291E-01  1.430198159020E-01
C18  4.975584614853E-01 -1.817583581291E-01 -1.430198159020E-01
C19 -4.510907504819E-01  2.951980044931E-01  2.187938613080E-01
C20  4.510907504819E-01 -2.951980044931E-01 -2.187938613080E-01
C21  2.463629577536E-01 -2.849865919044E-02  5.368736561228E-02
C22 -2.463629577536E-01  2.849865919044E-02 -5.368736561228E-02
C23  3.956024207758E-01 -4.888835199293E-02 -7.468884519442E-03
C24 -3.956024207758E-01  4.888835199293E-02  7.468884519442E-03
C25 -3.487115379241E-01  1.620847163633E-01  8.245020712604E-02
C26  3.487115379241E-01 -1.620847163633E-01 -8.245020712604E-02
C27 -4.422893734846E-01 -1.163772853643E-01  3.037774802344E-01
C28  4.422893734846E-01  1.163772853643E-01 -3.037774802344E-01
C29 -4.002085356768E-01 -7.524869279304E-02  3.866569348138E-01
C30  4.002085356768E-01  7.524869279304E-02 -3.866569348138E-01
C31 -2.135989169794E-01 -1.248712451369E-01  4.241895560485E-01
C32  2.135989169794E-01  1.248712451369E-01 -4.241895560485E-01
C33 -7.326181956883E-02 -2.119627747785E-01  3.772148416234E-01
C34  7.326181956883E-02  2.119627747785E-01 -3.772148416234E-01
C35 -1.102954286291E-01 -2.584177145558E-01  2.895512473911E-01
C36  1.102954286291E-01  2.584177145558E-01 -2.895512473911E-01
C37 -3.007776771304E-01 -2.102876370311E-01  2.519459552191E-01
C38  3.007776771304E-01  2.102876370311E-01 -2.519459552191E-01
C39 -3.403211924551E-01 -2.530826326025E-01  1.675567130837E-01
C40  3.403211924551E-01  2.530826326025E-01 -1.675567130837E-01
C41 -1.985439897981E-01 -3.435871336448E-01  1.166384851134E-01
C42  1.985439897981E-01  3.435871336448E-01 -1.166384851134E-01
C43 -7.571520732931E-03 -3.916466931668E-01  1.543104945343E-01
C44  7.571520732931E-03  3.916466931668E-01 -1.543104945343E-01
C45  3.005014518583E-02 -3.471422283217E-01  2.407545487657E-01
C46 -3.005014518583E-02  3.471422283217E-01 -2.407545487657E-01
C47 -2.371965361061E-01 -3.866430222138E-01  3.144894963668E-02
C48  2.371965361061E-01  3.866430222138E-01 -3.144894963668E-02
C49 -9.558342274555E-02 -4.759521096731E-01 -1.884956771470E-02
C50  9.558342274555E-02  4.759521096731E-01  1.884956771470E-02
C51  1.334074610150E-01 -4.808198227100E-01  1.046511940666E-01
C52 -1.334074610150E-01  4.808198227100E-01 -1.046511940666E-01
H53 -1.139667955022E-01  1.589927434729E-01  3.167237014136E-01
H54  1.139667955022E-01 -1.589927434729E-01 -3.167237014136E-01
H55 -2.227802317584E-02  3.589801186939E-01  4.476747946116E-01
H56  2.227802317584E-02 -3.589801186939E-01 -4.476747946116E-01
H57  3.363746791302E-01 -4.685358379651E-01  4.726496597690E-01
H58 -3.363746791302E-01  4.685358379651E-01 -4.726496597690E-01
H59 -3.958842963915E-01 -4.963358330059E-01  3.668342799601E-01
H60  3.958842963915E-01  4.963358330059E-01 -3.668342799601E-01
H61 -1.298280637659E-02  2.875288493928E-02  1.792588263911E-01
H62  1.298280637659E-02 -2.875288493928E-02 -1.792588263911E-01
H63 -2.931634727445E-01  3.701239401576E-01  2.299608903447E-01
H64  2.931634727445E-01 -3.701239401576E-01 -2.299608903447E-01
H65  8.831747823799E-02 -1.030755972597E-01  4.254985467768E-02
H66 -8.831747823799E-02  1.030755972597E-01 -4.254985467768E-02
H67 -1.906636012818E-01  2.365063096605E-01  9.368614414675E-02
H68  1.906636012818E-01 -2.365063096605E-01 -9.368614414675E-02
H69  4.146133722897E-01 -7.753532112819E-02  2.751143434830E-01
H70 -4.146133722897E-01  7.753532112819E-02 -2.751143434830E-01
H71  4.906510374197E-01 -9.761096818795E-04  4.250126504886E-01
H72 -4.906510374197E-01  9.761096818796E-04 -4.250126504886E-01
H73 -1.830441261786E-01 -9.123114430506E-02  4.913161157195E-01
H74  1.830441261786E-01  9.123114430506E-02 -4.913161157195E-01
H75  7.278117283124E-02 -2.476703586458E-01  4.052334735698E-01
H76 -7.278117283124E-02  2.476703586458E-01 -4.052334735698E-01
H77 -4.849396599227E-01 -2.161944178256E-01  1.389641318658E-01
H78  4.849396599227E-01  2.161944178256E-01 -1.389641318658E-01
H79  1.742939215069E-01 -3.842525006113E-01  2.694536658046E-01
H80 -1.742939215069E-01  3.842525006113E-01 -2.694536658046E-01
H81 -3.819446605707E-01 -3.499977656715E-01  2.891052800003E-03
H82  3.819446605707E-01  3.499977656715E-01 -2.891052800003E-03
H83  2.779350141056E-01  4.823641405884E-01  1.332841572924E-01
H84 -2.779350141056E-01 -4.823641405884E-01 -1.332841572924E-01


#===END

data_OPT_STEP_30

_symmetry_space_group_name_H-M 'P 1'
_cell_length_a      6.42293872
_cell_length_b      7.81262425
_cell_length_c     16.57618291
_cell_angle_alpha   98.419035
_cell_angle_beta   91.786224
_cell_angle_gamma   95.898295

loop_
_atom_site_label
_atom_site_fract_x
_atom_site_fract_y
_atom_site_fract_z
C1  4.318667865964E-02  2.347663337286E-01  3.274857990811E-01
C2 -4.318667865964E-02 -2.347663337286E-01 -3.274857990811E-01
C3  9.423522015007E-02  3.447887059838E-01  3.995521164901E-01
C4 -9.423522015007E-02 -3.447887059838E-01 -3.995521164901E-01
C5  2.990372528411E-01  4.431166294117E-01  4.138494452328E-01
C6 -2.990372528411E-01 -4.431166294117E-01 -4.138494452328E-01
C7  4.473734812871E-01  4.277882339877E-01  3.557806257998E-01
C8 -4.473734812871E-01 -4.277882339877E-01 -3.557806257998E-01
C9  4.012954333120E-01  3.132417937503E-01  2.787431070772E-01
C10 -4.012954333120E-01 -3.132417937503E-01 -2.787431070772E-01
C11  1.933163796749E-01  2.148870792927E-01  2.640991438223E-01
C12 -1.933163796749E-01 -2.148870792927E-01 -2.640991438223E-01
C13  1.446232777753E-01  1.040832247902E-01  1.902165632538E-01
C14 -1.446232777753E-01 -1.040832247902E-01 -1.902165632538E-01
C15  2.939437560354E-01  8.384291385813E-02  1.281560385137E-01
C16 -2.939437560354E-01 -8.384291385813E-02 -1.281560385137E-01
C17 -4.974871065070E-01  1.819417014725E-01  1.429378404842E-01
C18  4.974871065070E-01 -1.819417014725E-01 -1.429378404842E-01
C19 -4.509101934835E-01  2.954014743157E-01  2.186816105438E-01
C20  4.509101934835E-01 -2.954014743157E-01 -2.186816105438E-01
C21  2.463593312683E-01 -2.875238080425E-02  5.378111327779E-02
C22 -2.463593312683E-01  2.875238080425E-02 -5.378111327779E-02
C23  3.955984465395E-01 -4.904736098274E-02 -7.408805956877E-03
C24 -3.955984465395E-01  4.904736098274E-02  7.408805956877E-03
C25 -3.486074056749E-01  1.623190119251E-01  8.234691261677E-02
C26  3.486074056749E-01 -1.623190119251E-01 -8.234691261677E-02
C27 -4.427490334263E-01 -1.168229462873E-01  3.037448491946E-01
C28  4.427490334263E-01  1.168229462873E-01 -3.037448491946E-01
C29 -4.005870935795E-01 -7.576584449203E-02  3.866424174865E-01
C30  4.005870935795E-01  7.576584449203E-02 -3.866424174865E-01
C31 -2.135498878521E-01 -1.250747016078E-01  4.241814349580E-01
C32  2.135498878521E-01  1.250747016078E-01 -4.241814349580E-01
C33 -7.297586981259E-02 -2.119087148406E-01  3.771957387553E-01
C34  7.297586981259E-02  2.119087148406E-01 -3.771957387553E-01
C35 -1.100973826860E-01 -2.583136995196E-01  2.895240604221E-01
C36  1.100973826860E-01  2.583136995196E-01 -2.895240604221E-01
C37 -3.008465195900E-01 -2.102634355338E-01  2.518961314595E-01
C38  3.008465195900E-01  2.102634355338E-01 -2.518961314595E-01
C39 -3.405438932117E-01 -2.531260418096E-01  1.674979052056E-01
C40  3.405438932117E-01  2.531260418096E-01 -1.674979052056E-01
C41 -1.985801849105E-01 -3.434948666154E-01  1.165895841931E-01
C42  1.985801849105E-01  3.434948666154E-01 -1.165895841931E-01
C43 -7.397208886646E-03 -3.915352720634E-01  1.543011268405E-01
C44  7.397208886646E-03  3.915352720634E-01 -1.543011268405E-01
C45  3.031436451054E-02 -3.470453848743E-01  2.407539973435E-01
C46 -3.031436451054E-02  3.470453848743E-01 -2.407539973435E-01
C47 -2.373398221590E-01 -3.865688796901E-01  3.138950377814E-02
C48  2.373398221590E-01  3.865688796901E-01 -3.138950377814E-02
C49 -9.568576115813E-02 -4.759604175753E-01 -1.887202294277E-02
C50  9.568576115813E-02  4.759604175753E-01  1.887202294277E-02
C51  1.337379402638E-01 -4.806077209031E-01  1.046674162538E-01
C52 -1.337379402638E-01  4.806077209031E-01 -1.046674162538E-01
H53 -1.142453619360E-01  1.593086674971E-01  3.166982720217E-01
H54  1.142453619360E-01 -1.593086674971E-01 -3.166982720217E-01
H55 -2.226139471942E-02  3.592151431714E-01  4.476088279807E-01
H56  2.226139471942E-02 -3.592151431714E-01 -4.476088279807E-01
H57  3.366423603614E-01 -4.682531030421E-01  4.725020790379E-01
H58 -3.366423603614E-01  4.682531030421E-01 -4.725020790379E-01
H59 -3.953032324331E-01 -4.964556332991E-01  3.667568216224E-01
H60  3.953032324331E-01  4.964556332991E-01 -3.667568216224E-01
H61 -1.338257103332E-02  2.909416290401E-02  1.792222174182E-01
H62  1.338257103332E-02 -2.909416290401E-02 -1.792222174182E-01
H63 -2.927241432900E-01  3.701626136517E-01  2.298666106157E-01
H64  2.927241432900E-01 -3.701626136517E-01 -2.298666106157E-01
H65  8.841384267807E-02 -1.037703939295E-01  4.278200407238E-02
H66 -8.841384267807E-02  1.037703939295E-01 -4.278200407238E-02
H67 -1.905333838901E-01  2.369274781981E-01  9.350929582050E-02
H68  1.905333838901E-01 -2.369274781981E-01 -9.350929582050E-02
H69  4.139719705959E-01 -7.802186693849E-02  2.750600175039E-01
H70 -4.139719705959E-01  7.802186693849E-02 -2.750600175039E-01
H71  4.902285473239E-01 -1.432776756248E-03  4.249604667604E-01
H72 -4.902285473239E-01  1.432776756248E-03 -4.249604667604E-01
H73 -1.825934147077E-01 -9.101928335449E-02  4.912766069528E-01
H74  1.825934147077E-01  9.101928335449E-02 -4.912766069528E-01
H75  7.321365409901E-02 -2.476608083255E-01  4.052294877635E-01
H76 -7.321365409901E-02  2.476608083255E-01 -4.052294877635E-01
H77 -4.851554611131E-01 -2.159954279517E-01  1.388642738728E-01
H78  4.851554611131E-01  2.159954279517E-01 -1.388642738728E-01
H79  1.745701266189E-01 -3.843200453778E-01  2.694924785647E-01
H80 -1.745701266189E-01  3.843200453778E-01 -2.694924785647E-01
H81 -3.819626182111E-01 -3.495363646888E-01  2.779222267003E-03
H82  3.819626182111E-01  3.495363646888E-01 -2.779222267003E-03
H83  2.784374089813E-01  4.826349647197E-01  1.333242521376E-01
H84 -2.784374089813E-01 -4.826349647197E-01 -1.333242521376E-01


#===END

data_OPT_STEP_31

_symmetry_space_group_name_H-M 'P 1'
_cell_length_a      6.42166309
_cell_length_b      7.81200174
_cell_length_c     16.57378380
_cell_angle_alpha   98.415825
_cell_angle_beta   91.803705
_cell_angle_gamma   95.899105

loop_
_atom_site_label
_atom_site_fract_x
_atom_site_fract_y
_atom_site_fract_z
C1  4.308401945157E-02  2.349603198545E-01  3.274351277668E-01
C2 -4.308401945157E-02 -2.349603198545E-01 -3.274351277668E-01
C3  9.407733909167E-02  3.451091183041E-01  3.994866491664E-01
C4 -9.407733909167E-02 -3.451091183041E-01 -3.994866491664E-01
C5  2.989225185456E-01  4.434531713617E-01  4.138055254798E-01
C6 -2.989225185456E-01 -4.434531713617E-01 -4.138055254798E-01
C7  4.473891780419E-01  4.279467008690E-01  3.557885974384E-01
C8 -4.473891780419E-01 -4.279467008690E-01 -3.557885974384E-01
C9  4.013569002479E-01  3.133022105329E-01  2.787601092755E-01
C10 -4.013569002479E-01 -3.133022105329E-01 -2.787601092755E-01
C11  1.933352801267E-01  2.149247832584E-01  2.641002760961E-01
C12 -1.933352801267E-01 -2.149247832584E-01 -2.641002760961E-01
C13  1.446970931732E-01  1.039512982190E-01  1.902485216133E-01
C14 -1.446970931732E-01 -1.039512982190E-01 -1.902485216133E-01
C15  2.939811561423E-01  8.380297521904E-02  1.281720261309E-01
C16 -2.939811561423E-01 -8.380297521904E-02 -1.281720261309E-01
C17 -4.974251978366E-01  1.819505076432E-01  1.429591130875E-01
C18  4.974251978366E-01 -1.819505076432E-01 -1.429591130875E-01
C19 -4.508455020341E-01  2.954965009367E-01  2.186985949740E-01
C20  4.508455020341E-01 -2.954965009367E-01 -2.186985949740E-01
C21  2.463909401457E-01 -2.886370785442E-02  5.380068688874E-02
C22 -2.463909401457E-01  2.886370785442E-02 -5.380068688874E-02
C23  3.955744499927E-01 -4.905142533693E-02 -7.416121043770E-03
C24 -3.955744499927E-01  4.905142533693E-02  7.416121043770E-03
C25 -3.485801422503E-01  1.623773708328E-01  8.235472297198E-02
C26  3.485801422503E-01 -1.623773708328E-01 -8.235472297198E-02
C27 -4.428385557785E-01 -1.169186370846E-01  3.037386413178E-01
C28  4.428385557785E-01  1.169186370846E-01 -3.037386413178E-01
C29 -4.005947717762E-01 -7.578389185307E-02  3.866412017098E-01
C30  4.005947717762E-01  7.578389185307E-02 -3.866412017098E-01
C31 -2.133603884663E-01 -1.248864501443E-01  4.241915013653E-01
C32  2.133603884663E-01  1.248864501443E-01 -4.241915013653E-01
C33 -7.280232039991E-02 -2.117940091963E-01  3.772316341793E-01
C34  7.280232039991E-02  2.117940091963E-01 -3.772316341793E-01
C35 -1.099451954004E-01 -2.581744980355E-01  2.895417718302E-01
C36  1.099451954004E-01  2.581744980355E-01 -2.895417718302E-01
C37 -3.008407957965E-01 -2.102665415642E-01  2.518954439951E-01
C38  3.008407957965E-01  2.102665415642E-01 -2.518954439951E-01
C39 -3.405370730078E-01 -2.530789347490E-01  1.674832913436E-01
C40  3.405370730078E-01  2.530789347490E-01 -1.674832913436E-01
C41 -1.985836663169E-01 -3.434866384289E-01  1.165894978401E-01
C42  1.985836663169E-01  3.434866384289E-01 -1.165894978401E-01
C43 -7.329175857563E-03 -3.915035111845E-01  1.543180821339E-01
C44  7.329175857563E-03  3.915035111845E-01 -1.543180821339E-01
C45  3.034158563943E-02 -3.471252975871E-01  2.407928473047E-01
C46 -3.034158563943E-02  3.471252975871E-01 -2.407928473047E-01
C47 -2.373457992330E-01 -3.865187207944E-01  3.137391929318E-02
C48  2.373457992330E-01  3.865187207944E-01 -3.137391929318E-02
C49 -9.571301282806E-02 -4.759589979636E-01 -1.888024057594E-02
C50  9.571301282806E-02  4.759589979636E-01  1.888024057594E-02
C51  1.338158668274E-01 -4.805867099873E-01  1.046897817298E-01
C52 -1.338158668274E-01  4.805867099873E-01 -1.046897817298E-01
H53 -1.143932230298E-01  1.595516027261E-01  3.166033096799E-01
H54  1.143932230298E-01 -1.595516027261E-01 -3.166033096799E-01
H55 -2.240666534442E-02  3.594186949619E-01  4.475645871214E-01
H56  2.240666534442E-02 -3.594186949619E-01 -4.475645871214E-01
H57  3.365285581726E-01 -4.679176191613E-01  4.724808983830E-01
H58 -3.365285581726E-01  4.679176191613E-01 -4.724808983830E-01
H59 -3.952126683246E-01 -4.963468879754E-01  3.668009240338E-01
H60  3.952126683246E-01  4.963468879754E-01 -3.668009240338E-01
H61 -1.329779650012E-02  2.892692431190E-02  1.792419408850E-01
H62  1.329779650012E-02 -2.892692431190E-02 -1.792419408850E-01
H63 -2.927634380840E-01  3.704224949461E-01  2.298526777862E-01
H64  2.927634380840E-01 -3.704224949461E-01 -2.298526777862E-01
H65  8.842837225935E-02 -1.039009512598E-01  4.278966149411E-02
H66 -8.842837225935E-02  1.039009512598E-01 -4.278966149411E-02
H67 -1.904823299852E-01  2.370277011977E-01  9.352279179614E-02
H68  1.904823299852E-01 -2.370277011977E-01 -9.352279179614E-02
H69  4.137247090805E-01 -7.831134636064E-02  2.750540533805E-01
H70 -4.137247090805E-01  7.831134636064E-02 -2.750540533805E-01
H71  4.902674997168E-01 -1.437765357786E-03  4.249843199266E-01
H72 -4.902674997168E-01  1.437765357786E-03 -4.249843199266E-01
H73 -1.824287806374E-01 -9.085248969947E-02  4.913148750134E-01
H74  1.824287806374E-01  9.085248969947E-02 -4.913148750134E-01
H75  7.335340175809E-02 -2.476198507324E-01  4.052857772123E-01
H76 -7.335340175809E-02  2.476198507324E-01 -4.052857772123E-01
H77 -4.852193168612E-01 -2.160322554953E-01  1.388384678428E-01
H78  4.852193168612E-01  2.160322554953E-01 -1.388384678428E-01
H79  1.746673162404E-01 -3.843770192003E-01  2.695420680073E-01
H80 -1.746673162404E-01  3.843770192003E-01 -2.695420680073E-01
H81 -3.821431668859E-01 -3.496896011989E-01  2.757573900390E-03
H82  3.821431668859E-01  3.496896011989E-01 -2.757573900390E-03
H83  2.786086906258E-01  4.827290467512E-01  1.333598947136E-01
H84 -2.786086906258E-01 -4.827290467512E-01 -1.333598947136E-01


#===END

data_OPT_STEP_32

_symmetry_space_group_name_H-M 'P 1'
_cell_length_a      6.42026683
_cell_length_b      7.81292634
_cell_length_c     16.57019634
_cell_angle_alpha   98.429643
_cell_angle_beta   91.857368
_cell_angle_gamma   95.886299

loop_
_atom_site_label
_atom_site_fract_x
_atom_site_fract_y
_atom_site_fract_z
C1  4.309953544919E-02  2.350331365331E-01  3.273775779638E-01
C2 -4.309953544919E-02 -2.350331365331E-01 -3.273775779638E-01
C3  9.394310089291E-02  3.454654335020E-01  3.993969392430E-01
C4 -9.394310089291E-02 -3.454654335020E-01 -3.993969392430E-01
C5  2.987652663361E-01  4.439006731856E-01  4.137666533412E-01
C6 -2.987652663361E-01 -4.439006731856E-01 -4.137666533412E-01
C7  4.472887211198E-01  4.283459342999E-01  3.557984938255E-01
C8 -4.472887211198E-01 -4.283459342999E-01 -3.557984938255E-01
C9  4.013389707156E-01  3.135611229952E-01  2.787673375838E-01
C10 -4.013389707156E-01 -3.135611229952E-01 -2.787673375838E-01
C11  1.933229359186E-01  2.151049172972E-01  2.640573815730E-01
C12 -1.933229359186E-01 -2.151049172972E-01 -2.640573815730E-01
C13  1.447238907184E-01  1.039880134567E-01  1.902054100436E-01
C14 -1.447238907184E-01 -1.039880134567E-01 -1.902054100436E-01
C15  2.940063751546E-01  8.384150924450E-02  1.281548360315E-01
C16 -2.940063751546E-01 -8.384150924450E-02 -1.281548360315E-01
C17 -4.974234903103E-01  1.821010448527E-01  1.429793371556E-01
C18  4.974234903103E-01 -1.821010448527E-01 -1.429793371556E-01
C19 -4.508398014857E-01  2.957404921284E-01  2.187394153077E-01
C20  4.508398014857E-01 -2.957404921284E-01 -2.187394153077E-01
C21  2.464203607465E-01 -2.892683413320E-02  5.376827428368E-02
C22 -2.464203607465E-01  2.892683413320E-02 -5.376827428368E-02
C23  3.955943753391E-01 -4.912621606968E-02 -7.428337955698E-03
C24 -3.955943753391E-01  4.912621606968E-02  7.428337955698E-03
C25 -3.486345704621E-01  1.625853317077E-01  8.237555147327E-02
C26  3.486345704621E-01 -1.625853317077E-01 -8.237555147327E-02
C27 -4.426299797081E-01 -1.166924561285E-01  3.037187745459E-01
C28  4.426299797081E-01  1.166924561285E-01 -3.037187745459E-01
C29 -4.003788092578E-01 -7.564034524130E-02  3.866555097466E-01
C30  4.003788092578E-01  7.564034524130E-02 -3.866555097466E-01
C31 -2.131707465997E-01 -1.249072724809E-01  4.242654172158E-01
C32  2.131707465997E-01  1.249072724809E-01 -4.242654172158E-01
C33 -7.244496960951E-02 -2.116193926651E-01  3.773196018410E-01
C34  7.244496960951E-02  2.116193926651E-01 -3.773196018410E-01
C35 -1.096772903639E-01 -2.580004937045E-01  2.895942444403E-01
C36  1.096772903639E-01  2.580004937045E-01 -2.895942444403E-01
C37 -3.007360009559E-01 -2.102267018077E-01  2.519038408908E-01
C38  3.007360009559E-01  2.102267018077E-01 -2.519038408908E-01
C39 -3.406214678188E-01 -2.532218966427E-01  1.674725884695E-01
C40  3.406214678188E-01  2.532218966427E-01 -1.674725884695E-01
C41 -1.986538104107E-01 -3.436095485467E-01  1.165952622528E-01
C42  1.986538104107E-01  3.436095485467E-01 -1.165952622528E-01
C43 -7.162526438316E-03 -3.913864112469E-01  1.543537468406E-01
C44  7.162526438316E-03  3.913864112469E-01 -1.543537468406E-01
C45  3.069151873598E-02 -3.468386166993E-01  2.408501850903E-01
C46 -3.069151873598E-02  3.468386166993E-01 -2.408501850903E-01
C47 -2.374471157898E-01 -3.866111369552E-01  3.134374465621E-02
C48  2.374471157898E-01  3.866111369552E-01 -3.134374465621E-02
C49 -9.583516479841E-02 -4.760842384263E-01 -1.889474266503E-02
C50  9.583516479841E-02  4.760842384263E-01  1.889474266503E-02
C51  1.340413506142E-01 -4.803931458870E-01  1.047344903755E-01
C52 -1.340413506142E-01  4.803931458870E-01 -1.047344903755E-01
H53 -1.142684683669E-01  1.594125915466E-01  3.165255900493E-01
H54  1.142684683669E-01 -1.594125915466E-01 -3.165255900493E-01
H55 -2.253136685393E-02  3.596767533719E-01  4.474784079161E-01
H56  2.253136685393E-02 -3.596767533719E-01 -4.474784079161E-01
H57  3.363029365641E-01 -4.673767763489E-01  4.724659224471E-01
H58 -3.363029365641E-01  4.673767763489E-01 -4.724659224471E-01
H59 -3.952690839274E-01 -4.959559942129E-01  3.668785058050E-01
H60  3.952690839274E-01  4.959559942129E-01 -3.668785058050E-01
H61 -1.326484745354E-02  2.897592858611E-02  1.791386088527E-01
H62  1.326484745354E-02 -2.897592858611E-02 -1.791386088527E-01
H63 -2.928205510347E-01  3.707133533863E-01  2.299239985069E-01
H64  2.928205510347E-01 -3.707133533863E-01 -2.299239985069E-01
H65  8.843397246049E-02 -1.039425852830E-01  4.270064429505E-02
H66 -8.843397246049E-02  1.039425852830E-01 -4.270064429505E-02
H67 -1.905350103411E-01  2.373059046763E-01  9.357569572296E-02
H68  1.905350103411E-01 -2.373059046763E-01 -9.357569572296E-02
H69  4.138430142884E-01 -7.815122776064E-02  2.750071845773E-01
H70 -4.138430142884E-01  7.815122776064E-02 -2.750071845773E-01
H71  4.905993745797E-01 -1.234892137024E-03  4.250362169220E-01
H72 -4.905993745797E-01  1.234892137024E-03 -4.250362169220E-01
H73 -1.823995801248E-01 -9.111613192068E-02  4.914522932758E-01
H74  1.823995801248E-01  9.111613192068E-02 -4.914522932758E-01
H75  7.366600614540E-02 -2.475554836245E-01  4.054172677793E-01
H76 -7.366600614540E-02  2.475554836245E-01 -4.054172677793E-01
H77 -4.855044863593E-01 -2.164304372576E-01  1.388062440863E-01
H78  4.855044863593E-01  2.164304372576E-01 -1.388062440863E-01
H79  1.753406189972E-01 -3.837355126581E-01  2.696083833262E-01
H80 -1.753406189972E-01  3.837355126581E-01 -2.696083833262E-01
H81 -3.823681343629E-01 -3.498875382883E-01  2.688468755042E-03
H82  3.823681343629E-01  3.498875382883E-01 -2.688468755042E-03
H83  2.789819088440E-01  4.830485569692E-01  1.334401998998E-01
H84 -2.789819088440E-01 -4.830485569692E-01 -1.334401998998E-01


#===END

data_OPT_STEP_33

_symmetry_space_group_name_H-M 'P 1'
_cell_length_a      6.42490738
_cell_length_b      7.80943851
_cell_length_c     16.56214682
_cell_angle_alpha   98.466977
_cell_angle_beta   91.963528
_cell_angle_gamma   95.899098

loop_
_atom_site_label
_atom_site_fract_x
_atom_site_fract_y
_atom_site_fract_z
C1  4.329488707628E-02  2.352751910236E-01  3.272026447898E-01
C2 -4.329488707628E-02 -2.352751910236E-01 -3.272026447898E-01
C3  9.404674409418E-02  3.459199899878E-01  3.992902204056E-01
C4 -9.404674409418E-02 -3.459199899878E-01 -3.992902204056E-01
C5  2.986824386886E-01  4.446048942508E-01  4.138164523046E-01
C6 -2.986824386886E-01 -4.446048942508E-01 -4.138164523046E-01
C7  4.470844636951E-01  4.291511149361E-01  3.559151102352E-01
C8 -4.470844636951E-01 -4.291511149361E-01 -3.559151102352E-01
C9  4.012524599834E-01  3.141073378705E-01  2.788264734087E-01
C10 -4.012524599834E-01 -3.141073378705E-01 -2.788264734087E-01
C11  1.934752056341E-01  2.152986092970E-01  2.639814209176E-01
C12 -1.934752056341E-01 -2.152986092970E-01 -2.639814209176E-01
C13  1.449843490702E-01  1.039163508992E-01  1.900718245899E-01
C14 -1.449843490702E-01 -1.039163508992E-01 -1.900718245899E-01
C15  2.941594302456E-01  8.382875450545E-02  1.280905525279E-01
C16 -2.941594302456E-01 -8.382875450545E-02 -1.280905525279E-01
C17 -4.974724132124E-01  1.823761097472E-01  1.430664091887E-01
C18  4.974724132124E-01 -1.823761097472E-01 -1.430664091887E-01
C19 -4.509651127243E-01  2.962379773777E-01  2.188953476769E-01
C20  4.509651127243E-01 -2.962379773777E-01 -2.188953476769E-01
C21  2.466301320214E-01 -2.911827087667E-02  5.362435262866E-02
C22 -2.466301320214E-01  2.911827087667E-02 -5.362435262866E-02
C23  3.956970546327E-01 -4.927556067985E-02 -7.501726963558E-03
C24 -3.956970546327E-01  4.927556067985E-02  7.501726963558E-03
C25 -3.488298535771E-01  1.629735382602E-01  8.251421377780E-02
C26  3.488298535771E-01 -1.629735382602E-01 -8.251421377780E-02
C27 -4.423210310000E-01 -1.165775197092E-01  3.036572838006E-01
C28  4.423210310000E-01  1.165775197092E-01 -3.036572838006E-01
C29 -3.999885199340E-01 -7.535995605853E-02  3.866677807601E-01
C30  3.999885199340E-01  7.535995605853E-02 -3.866677807601E-01
C31 -2.127790400877E-01 -1.244151427112E-01  4.244037837611E-01
C32  2.127790400877E-01  1.244151427112E-01 -4.244037837611E-01
C33 -7.210560515247E-02 -2.110596791818E-01  3.775062332357E-01
C34  7.210560515247E-02  2.110596791818E-01 -3.775062332357E-01
C35 -1.094402317939E-01 -2.576199952426E-01  2.897061385266E-01
C36  1.094402317939E-01  2.576199952426E-01 -2.897061385266E-01
C37 -3.004851797848E-01 -2.100569702880E-01  2.518840634539E-01
C38  3.004851797848E-01  2.100569702880E-01 -2.518840634539E-01
C39 -3.402638382117E-01 -2.529757206524E-01  1.673595840311E-01
C40  3.402638382117E-01  2.529757206524E-01 -1.673595840311E-01
C41 -1.984863482485E-01 -3.435051288523E-01  1.165446801624E-01
C42  1.984863482485E-01  3.435051288523E-01 -1.165446801624E-01
C43 -7.050942600143E-03 -3.911236615526E-01  1.544402856234E-01
C44  7.050942600143E-03  3.911236615526E-01 -1.544402856234E-01
C45  3.091210345966E-02 -3.463338684131E-01  2.410059421920E-01
C46 -3.091210345966E-02  3.463338684131E-01 -2.410059421920E-01
C47 -2.373484207531E-01 -3.867154638630E-01  3.121924712144E-02
C48  2.373484207531E-01  3.867154638630E-01 -3.121924712144E-02
C49 -9.580845534416E-02 -4.761661460862E-01 -1.896391054081E-02
C50  9.580845534416E-02  4.761661460862E-01  1.896391054081E-02
C51  1.340373556837E-01 -4.801702213815E-01  1.048809187626E-01
C52 -1.340373556837E-01  4.801702213815E-01 -1.048809187626E-01
H53 -1.139571649905E-01  1.595258539827E-01  3.162312038016E-01
H54  1.139571649905E-01 -1.595258539827E-01 -3.162312038016E-01
H55 -2.232870929514E-02  3.600462518953E-01  4.473345657572E-01
H56  2.232870929514E-02 -3.600462518953E-01 -4.473345657572E-01
H57  3.362012427107E-01 -4.666050521519E-01  4.725928271021E-01
H58 -3.362012427107E-01  4.666050521519E-01 -4.725928271021E-01
H59 -3.956360037895E-01 -4.949022838550E-01  3.670887335703E-01
H60  3.956360037895E-01  4.949022838550E-01 -3.670887335703E-01
H61 -1.281151395539E-02  2.863589826546E-02  1.789199217796E-01
H62  1.281151395539E-02 -2.863589826546E-02 -1.789199217796E-01
H63 -2.931230398570E-01  3.714269866343E-01  2.301707884261E-01
H64  2.931230398570E-01 -3.714269866343E-01 -2.301707884261E-01
H65  8.877819055499E-02 -1.043083255509E-01  4.245202723077E-02
H66 -8.877819055499E-02  1.043083255509E-01 -4.245202723077E-02
H67 -1.908903568983E-01  2.379410473798E-01  9.380085937332E-02
H68  1.908903568983E-01 -2.379410473798E-01 -9.380085937332E-02
H69  4.142075111314E-01 -7.810071693283E-02  2.748564083471E-01
H70 -4.142075111314E-01  7.810071693283E-02 -2.748564083471E-01
H71  4.910049381174E-01 -1.119559683265E-03  4.250553561039E-01
H72 -4.910049381174E-01  1.119559683265E-03 -4.250553561039E-01
H73 -1.820668961272E-01 -9.064497555141E-02  4.916622393363E-01
H74  1.820668961272E-01  9.064497555141E-02 -4.916622393363E-01
H75  7.398702423857E-02 -2.468913454369E-01  4.056791404751E-01
H76 -7.398702423857E-02  2.468913454369E-01 -4.056791404751E-01
H77 -4.850128714229E-01 -2.161579400804E-01  1.385874561764E-01
H78  4.850128714229E-01  2.161579400804E-01 -1.385874561764E-01
H79  1.755743337130E-01 -3.830712364920E-01  2.698541822093E-01
H80 -1.755743337130E-01  3.830712364920E-01 -2.698541822093E-01
H81 -3.822591040994E-01 -3.501405562182E-01  2.462826718564E-03
H82  3.822591040994E-01  3.501405562182E-01 -2.462826718564E-03
H83  2.789455724009E-01  4.833819057370E-01  1.336891109412E-01
H84 -2.789455724009E-01 -4.833819057370E-01 -1.336891109412E-01


#===END

data_OPT_STEP_34

_symmetry_space_group_name_H-M 'P 1'
_cell_length_a      6.42061854
_cell_length_b      7.81988134
_cell_length_c     16.55462896
_cell_angle_alpha   98.591711
_cell_angle_beta   92.187889
_cell_angle_gamma   95.892212

loop_
_atom_site_label
_atom_site_fract_x
_atom_site_fract_y
_atom_site_fract_z
C1  4.379192941756E-02  2.349896708455E-01  3.270639299779E-01
C2 -4.379192941756E-02 -2.349896708455E-01 -3.270639299779E-01
C3  9.424463090311E-02  3.465554901840E-01  3.991144533132E-01
C4 -9.424463090311E-02 -3.465554901840E-01 -3.991144533132E-01
C5  2.988047405943E-01  4.457121864651E-01  4.138630061924E-01
C6 -2.988047405943E-01 -4.457121864651E-01 -4.138630061924E-01
C7  4.474527520659E-01  4.298356049988E-01  3.562124274891E-01
C8 -4.474527520659E-01 -4.298356049988E-01 -3.562124274891E-01
C9  4.016550960675E-01  3.143941398094E-01  2.790368685610E-01
C10 -4.016550960675E-01 -3.143941398094E-01 -2.790368685610E-01
C11  1.939256990668E-01  2.151314160164E-01  2.639596023500E-01
C12 -1.939256990668E-01 -2.151314160164E-01 -2.639596023500E-01
C13  1.453880529781E-01  1.034601725955E-01  1.899385449086E-01
C14 -1.453880529781E-01 -1.034601725955E-01 -1.899385449086E-01
C15  2.944172106866E-01  8.361832000137E-02  1.280319758946E-01
C16 -2.944172106866E-01 -8.361832000137E-02 -1.280319758946E-01
C17 -4.971932740471E-01  1.824965871466E-01  1.432681478630E-01
C18  4.971932740471E-01 -1.824965871466E-01 -1.432681478630E-01
C19 -4.505537669631E-01  2.965226107517E-01  2.192472356446E-01
C20  4.505537669631E-01 -2.965226107517E-01 -2.192472356446E-01
C21  2.467479382236E-01 -2.947327860580E-02  5.341603956128E-02
C22 -2.467479382236E-01  2.947327860580E-02 -5.341603956128E-02
C23  3.956554432952E-01 -4.939154414886E-02 -7.642947808033E-03
C24 -3.956554432952E-01  4.939154414886E-02  7.642947808033E-03
C25 -3.486631956963E-01  1.632410964191E-01  8.280469464496E-02
C26  3.486631956963E-01 -1.632410964191E-01 -8.280469464496E-02
C27 -4.419885965426E-01 -1.166388402487E-01  3.035955125181E-01
C28  4.419885965426E-01  1.166388402487E-01 -3.035955125181E-01
C29 -3.991061897650E-01 -7.497322321376E-02  3.867076878914E-01
C30  3.991061897650E-01  7.497322321376E-02 -3.867076878914E-01
C31 -2.117831532826E-01 -1.240817177456E-01  4.246534654350E-01
C32  2.117831532826E-01  1.240817177456E-01 -4.246534654350E-01
C33 -7.136094031782E-02 -2.109910116670E-01  3.778531054479E-01
C34  7.136094031782E-02  2.109910116670E-01 -3.778531054479E-01
C35 -1.088032100299E-01 -2.573228958781E-01  2.898999257342E-01
C36  1.088032100299E-01  2.573228958781E-01 -2.898999257342E-01
C37 -3.000448390376E-01 -2.098610300080E-01  2.518645290827E-01
C38  3.000448390376E-01  2.098610300080E-01 -2.518645290827E-01
C39 -3.401765613100E-01 -2.530474395447E-01  1.672207304177E-01
C40  3.401765613100E-01  2.530474395447E-01 -1.672207304177E-01
C41 -1.983132070258E-01 -3.433792497747E-01  1.164706228427E-01
C42  1.983132070258E-01  3.433792497747E-01 -1.164706228427E-01
C43 -6.663260723246E-03 -3.908645301300E-01  1.545815377106E-01
C44  6.663260723246E-03  3.908645301300E-01 -1.545815377106E-01
C45  3.141453315200E-02 -3.461406410638E-01  2.412842487954E-01
C46 -3.141453315200E-02  3.461406410638E-01 -2.412842487954E-01
C47 -2.373678526984E-01 -3.866991007688E-01  3.101471289352E-02
C48  2.373678526984E-01  3.866991007688E-01 -3.101471289352E-02
C49 -9.591254741498E-02 -4.762305256189E-01 -1.907352384576E-02
C50  9.591254741498E-02  4.762305256189E-01  1.907352384576E-02
C51  1.345338170742E-01 -4.797101078879E-01  1.051004490726E-01
C52 -1.345338170742E-01  4.797101078879E-01 -1.051004490726E-01
H53 -1.131809115815E-01  1.584824670478E-01  3.160097291852E-01
H54  1.131809115815E-01 -1.584824670478E-01 -3.160097291852E-01
H55 -2.214219827235E-02  3.607626726225E-01  4.470591887295E-01
H56  2.214219827235E-02 -3.607626726225E-01 -4.470591887295E-01
H57  3.360018567641E-01 -4.646973289746E-01  4.726159295360E-01
H58 -3.360018567641E-01  4.646973289746E-01 -4.726159295360E-01
H59 -3.953950069556E-01 -4.937102762361E-01  3.675357516299E-01
H60  3.953950069556E-01  4.937102762361E-01 -3.675357516299E-01
H61 -1.222004853719E-02  2.764441078690E-02  1.786615293146E-01
H62  1.222004853719E-02 -2.764441078690E-02 -1.786615293146E-01
H63 -2.927547050679E-01  3.719372190234E-01  2.307115068592E-01
H64  2.927547050679E-01 -3.719372190234E-01 -2.307115068592E-01
H65  8.894922118676E-02 -1.049936299046E-01  4.207796725744E-02
H66 -8.894922118676E-02  1.049936299046E-01 -4.207796725744E-02
H67 -1.907839478370E-01  2.386056977748E-01  9.424006484614E-02
H68  1.907839478370E-01 -2.386056977748E-01 -9.424006484614E-02
H69  4.141013201736E-01 -7.867224077454E-02  2.746804540654E-01
H70 -4.141013201736E-01  7.867224077454E-02 -2.746804540654E-01
H71  4.919121889254E-01 -9.942908518678E-04  4.251568681293E-01
H72 -4.919121889254E-01  9.942908518678E-04 -4.251568681293E-01
H73 -1.811068612968E-01 -9.049760008710E-02  4.920583468273E-01
H74  1.811068612968E-01  9.049760008710E-02 -4.920583468273E-01
H75  7.494863867884E-02 -2.466530257316E-01  4.061513737490E-01
H76 -7.494863867884E-02  2.466530257316E-01 -4.061513737490E-01
H77 -4.854463457535E-01 -2.169261987935E-01  1.383196133488E-01
H78  4.854463457535E-01  2.169261987935E-01 -1.383196133488E-01
H79  1.759555873657E-01 -3.832093653525E-01  2.703261204939E-01
H80 -1.759555873657E-01  3.832093653525E-01 -2.703261204939E-01
H81 -3.825249082628E-01 -3.503966809213E-01  2.081002742502E-03
H82  3.825249082628E-01  3.503966809213E-01 -2.081002742502E-03
H83  2.797023242192E-01  4.841159445147E-01  1.340848210844E-01
H84 -2.797023242192E-01 -4.841159445147E-01 -1.340848210844E-01


#===END

data_OPT_STEP_35

_symmetry_space_group_name_H-M 'P 1'
_cell_length_a      6.42394555
_cell_length_b      7.81643610
_cell_length_c     16.54974445
_cell_angle_alpha   98.582185
_cell_angle_beta   92.211342
_cell_angle_gamma   95.914095

loop_
_atom_site_label
_atom_site_fract_x
_atom_site_fract_y
_atom_site_fract_z
C1  4.411989307824E-02  2.353284306122E-01  3.270442915252E-01
C2 -4.411989307824E-02 -2.353284306122E-01 -3.270442915252E-01
C3  9.463237251404E-02  3.468891414010E-01  3.991248139140E-01
C4 -9.463237251404E-02 -3.468891414010E-01 -3.991248139140E-01
C5  2.990870560300E-01  4.461989208559E-01  4.138819386021E-01
C6 -2.990870560300E-01 -4.461989208559E-01 -4.138819386021E-01
C7  4.476751975970E-01  4.303004092461E-01  3.562436456988E-01
C8 -4.476751975970E-01 -4.303004092461E-01 -3.562436456988E-01
C9  4.019841158154E-01  3.145390104773E-01  2.791031909924E-01
C10 -4.019841158154E-01 -3.145390104773E-01 -2.791031909924E-01
C11  1.942637404819E-01  2.152816495719E-01  2.639878575290E-01
C12 -1.942637404819E-01 -2.152816495719E-01 -2.639878575290E-01
C13  1.456943322647E-01  1.035080062012E-01  1.899561166657E-01
C14 -1.456943322647E-01 -1.035080062012E-01 -1.899561166657E-01
C15  2.946102413639E-01  8.367372069161E-02  1.280450760661E-01
C16 -2.946102413639E-01 -8.367372069161E-02 -1.280450760661E-01
C17 -4.971033973395E-01  1.827210371389E-01  1.432737475125E-01
C18  4.971033973395E-01 -1.827210371389E-01 -1.432737475125E-01
C19 -4.503883529133E-01  2.967946791566E-01  2.192832180175E-01
C20  4.503883529133E-01 -2.967946791566E-01 -2.192832180175E-01
C21  2.468885773599E-01 -2.951079873909E-02  5.341524779948E-02
C22 -2.468885773599E-01  2.951079873909E-02 -5.341524779948E-02
C23  3.957154986990E-01 -4.949756913934E-02 -7.632827984574E-03
C24 -3.957154986990E-01  4.949756913934E-02  7.632827984574E-03
C25 -3.486904068244E-01  1.634711558295E-01  8.280208215993E-02
C26  3.486904068244E-01 -1.634711558295E-01 -8.280208215993E-02
C27 -4.418241218637E-01 -1.165212080852E-01  3.035329948098E-01
C28  4.418241218637E-01  1.165212080852E-01 -3.035329948098E-01
C29 -3.992094415199E-01 -7.525103628792E-02  3.867016209542E-01
C30  3.992094415199E-01  7.525103628792E-02 -3.867016209542E-01
C31 -2.119338621404E-01 -1.242602403165E-01  4.246882745788E-01
C32  2.119338621404E-01  1.242602403165E-01 -4.246882745788E-01
C33 -7.133358408600E-02 -2.107844619975E-01  3.778884540543E-01
C34  7.133358408600E-02  2.107844619975E-01 -3.778884540543E-01
C35 -1.087460639529E-01 -2.570876795793E-01  2.899067237834E-01
C36  1.087460639529E-01  2.570876795793E-01 -2.899067237834E-01
C37 -3.000027375231E-01 -2.098190536331E-01  2.518261638387E-01
C38  3.000027375231E-01  2.098190536331E-01 -2.518261638387E-01
C39 -3.401125381740E-01 -2.530532837251E-01  1.671525561922E-01
C40  3.401125381740E-01  2.530532837251E-01 -1.671525561922E-01
C41 -1.983958432476E-01 -3.435215020852E-01  1.164391075114E-01
C42  1.983958432476E-01  3.435215020852E-01 -1.164391075114E-01
C43 -6.751786250861E-03 -3.908348444275E-01  1.546035722762E-01
C44  6.751786250861E-03  3.908348444275E-01 -1.546035722762E-01
C45  3.143942580200E-02 -3.458494270492E-01  2.413177760678E-01
C46 -3.143942580200E-02  3.458494270492E-01 -2.413177760678E-01
C47 -2.374264909981E-01 -3.869303757662E-01  3.095644985543E-02
C48  2.374264909981E-01  3.869303757662E-01 -3.095644985543E-02
C49 -9.590703432862E-02 -4.763103432262E-01 -1.910243921341E-02
C50  9.590703432862E-02  4.763103432262E-01  1.910243921341E-02
C51  1.342585226130E-01 -4.798925220480E-01  1.051773911815E-01
C52 -1.342585226130E-01  4.798925220480E-01 -1.051773911815E-01
H53 -1.128993243216E-01  1.589948310000E-01  3.159015988460E-01
H54  1.128993243216E-01 -1.589948310000E-01 -3.159015988460E-01
H55 -2.166722089915E-02  3.610438965137E-01  4.470693658899E-01
H56  2.166722089915E-02 -3.610438965137E-01 -4.470693658899E-01
H57  3.360666077647E-01 -4.638412849797E-01  4.725865743507E-01
H58 -3.360666077647E-01  4.638412849797E-01 -4.725865743507E-01
H59 -3.952732483593E-01 -4.931043249619E-01  3.675918291416E-01
H60  3.952732483593E-01  4.931043249619E-01 -3.675918291416E-01
H61 -1.190269039945E-02  2.776587060273E-02  1.786168851193E-01
H62  1.190269039945E-02 -2.776587060273E-02 -1.786168851193E-01
H63 -2.927113911950E-01  3.723459149416E-01  2.307563686346E-01
H64  2.927113911950E-01 -3.723459149416E-01 -2.307563686346E-01
H65  8.906742832814E-02 -1.049233807301E-01  4.200847747447E-02
H66 -8.906742832814E-02  1.049233807301E-01 -4.200847747447E-02
H67 -1.908083699151E-01  2.388006764293E-01  9.428878915306E-02
H68  1.908083699151E-01 -2.388006764293E-01 -9.428878915306E-02
H69  4.145332390991E-01 -7.829761931816E-02  2.745590265555E-01
H70 -4.145332390991E-01  7.829761931816E-02 -2.745590265555E-01
H71  4.919905432067E-01 -1.250230752549E-03  4.251897263201E-01
H72 -4.919905432067E-01  1.250230752549E-03 -4.251897263201E-01
H73 -1.813322928698E-01 -9.072343782654E-02  4.921313154786E-01
H74  1.813322928698E-01  9.072343782654E-02 -4.921313154786E-01
H75  7.488279296404E-02 -2.464284127587E-01  4.062351772080E-01
H76 -7.488279296404E-02  2.464284127587E-01 -4.062351772080E-01
H77 -4.852479893422E-01 -2.168924502773E-01  1.381955186150E-01
H78  4.852479893422E-01  2.168924502773E-01 -1.381955186150E-01
H79  1.761310987528E-01 -3.825594247274E-01  2.703902291127E-01
H80 -1.761310987528E-01  3.825594247274E-01 -2.703902291127E-01
H81 -3.825548691814E-01 -3.507518906327E-01  1.965480096019E-03
H82  3.825548691814E-01  3.507518906327E-01 -1.965480096019E-03
H83  2.792184802960E-01  4.837854501147E-01  1.342378434090E-01
H84 -2.792184802960E-01 -4.837854501147E-01 -1.342378434090E-01


#===END

data_OPT_STEP_36

_symmetry_space_group_name_H-M 'P 1'
_cell_length_a      6.42659666
_cell_length_b      7.81825676
_cell_length_c     16.54427138
_cell_angle_alpha   98.589213
_cell_angle_beta   92.249525
_cell_angle_gamma   95.926172

loop_
_atom_site_label
_atom_site_fract_x
_atom_site_fract_y
_atom_site_fract_z
C1  4.400732286236E-02  2.354499501289E-01  3.269417469597E-01
C2 -4.400732286236E-02 -2.354499501289E-01 -3.269417469597E-01
C3  9.453126936513E-02  3.469144128169E-01  3.990894280479E-01
C4 -9.453126936513E-02 -3.469144128169E-01 -3.990894280479E-01
C5  2.988922315054E-01  4.463000877090E-01  4.139139342029E-01
C6 -2.988922315054E-01 -4.463000877090E-01 -4.139139342029E-01
C7  4.473546470322E-01  4.306089618846E-01  3.562622317542E-01
C8 -4.473546470322E-01 -4.306089618846E-01 -3.562622317542E-01
C9  4.017067606152E-01  3.148388357040E-01  2.790796708607E-01
C10 -4.017067606152E-01 -3.148388357040E-01 -2.790796708607E-01
C11  1.940934438064E-01  2.154882385201E-01  2.639008728616E-01
C12 -1.940934438064E-01 -2.154882385201E-01 -2.639008728616E-01
C13  1.455985619198E-01  1.036601120308E-01  1.898375280918E-01
C14 -1.455985619198E-01 -1.036601120308E-01 -1.898375280918E-01
C15  2.945376188228E-01  8.377185384553E-02  1.279784983584E-01
C16 -2.945376188228E-01 -8.377185384553E-02 -1.279784983584E-01
C17 -4.972915305917E-01  1.829288253527E-01  1.432674452336E-01
C18  4.972915305917E-01 -1.829288253527E-01 -1.432674452336E-01
C19 -4.507059511633E-01  2.971509055265E-01  2.192820713937E-01
C20  4.507059511633E-01 -2.971509055265E-01 -2.192820713937E-01
C21  2.469543011955E-01 -2.957913801404E-02  5.334693932476E-02
C22 -2.469543011955E-01  2.957913801404E-02 -5.334693932476E-02
C23  3.957838129740E-01 -4.957125489911E-02 -7.658322160342E-03
C24 -3.957838129740E-01  4.957125489911E-02  7.658322160342E-03
C25 -3.488657107308E-01  1.636556964610E-01  8.284234386486E-02
C26  3.488657107308E-01 -1.636556964610E-01 -8.284234386486E-02
C27 -4.415450208904E-01 -1.162976530893E-01  3.034589718589E-01
C28  4.415450208904E-01  1.162976530893E-01 -3.034589718589E-01
C29 -3.990740342124E-01 -7.514950141143E-02  3.866804486187E-01
C30  3.990740342124E-01  7.514950141143E-02 -3.866804486187E-01
C31 -2.118580440033E-01 -1.240527895557E-01  4.247419698033E-01
C32  2.118580440033E-01  1.240527895557E-01 -4.247419698033E-01
C33 -7.119998955084E-02 -2.103924521392E-01  3.779630650110E-01
C34  7.119998955084E-02  2.103924521392E-01 -3.779630650110E-01
C35 -1.086035574902E-01 -2.567725903911E-01  2.899440588945E-01
C36  1.086035574902E-01  2.567725903911E-01 -2.899440588945E-01
C37 -2.997713180344E-01 -2.095675522671E-01  2.517839271150E-01
C38  2.997713180344E-01  2.095675522671E-01 -2.517839271150E-01
C39 -3.398528519100E-01 -2.528542444641E-01  1.670697019170E-01
C40  3.398528519100E-01  2.528542444641E-01 -1.670697019170E-01
C41 -1.982289678892E-01 -3.433671720263E-01  1.163938308271E-01
C42  1.982289678892E-01  3.433671720263E-01 -1.163938308271E-01
C43 -6.650019630816E-03 -3.905829989177E-01  1.546373888825E-01
C44  6.650019630816E-03  3.905829989177E-01 -1.546373888825E-01
C45  3.151635904229E-02 -3.455405425620E-01  2.413911763013E-01
C46 -3.151635904229E-02  3.455405425620E-01 -2.413911763013E-01
C47 -2.372842633079E-01 -3.869047247491E-01  3.087611005060E-02
C48  2.372842633079E-01  3.869047247491E-01 -3.087611005060E-02
C49 -9.588344335238E-02 -4.763718826649E-01 -1.914167458508E-02
C50  9.588344335238E-02  4.763718826649E-01  1.914167458508E-02
C51  1.343063742609E-01 -4.796333040390E-01  1.052470151461E-01
C52 -1.343063742609E-01  4.796333040390E-01 -1.052470151461E-01
H53 -1.129768503104E-01  1.591167431120E-01  3.157433489346E-01
H54  1.129768503104E-01 -1.591167431120E-01 -3.157433489346E-01
H55 -2.171052032014E-02  3.609772635548E-01  4.470256168309E-01
H56  2.171052032014E-02 -3.609772635548E-01 -4.470256168309E-01
H57  3.359163997183E-01 -4.638657096526E-01  4.726759944461E-01
H58 -3.359163997183E-01  4.638657096526E-01 -4.726759944461E-01
H59 -3.956657628801E-01 -4.927419249473E-01  3.676561916026E-01
H60  3.956657628801E-01  4.927419249473E-01 -3.676561916026E-01
H61 -1.196698471288E-02  2.792400832041E-02  1.784372158724E-01
H62  1.196698471288E-02 -2.792400832041E-02 -1.784372158724E-01
H63 -2.931302808538E-01  3.728330586252E-01  2.307836107796E-01
H64  2.931302808538E-01 -3.728330586252E-01 -2.307836107796E-01
H65  8.921790868353E-02 -1.050806082229E-01  4.190125983344E-02
H66 -8.921790868353E-02  1.050806082229E-01 -4.190125983344E-02
H67 -1.910531713168E-01  2.390383707920E-01  9.437627162379E-02
H68  1.910531713168E-01 -2.390383707920E-01 -9.437627162379E-02
H69  4.148929004093E-01 -7.808544078994E-02  2.744296043991E-01
H70 -4.148929004093E-01  7.808544078994E-02 -2.744296043991E-01
H71  4.921145648820E-01 -1.223206952063E-03  4.251480451327E-01
H72 -4.921145648820E-01  1.223206952063E-03 -4.251480451327E-01
H73 -1.813116422066E-01 -9.054256022518E-02  4.922141699131E-01
H74  1.813116422066E-01  9.054256022518E-02 -4.922141699131E-01
H75  7.498862400198E-02 -2.459526661376E-01  4.063598073457E-01
H76 -7.498862400198E-02  2.459526661376E-01 -4.063598073457E-01
H77 -4.849285736489E-01 -2.167312866285E-01  1.380590872624E-01
H78  4.849285736489E-01  2.167312866285E-01 -1.380590872624E-01
H79  1.761782840811E-01 -3.821566106831E-01  2.705149115720E-01
H80 -1.761782840811E-01  3.821566106831E-01 -2.705149115720E-01
H81 -3.823658086396E-01 -3.507919512062E-01  1.833672245158E-03
H82  3.823658086396E-01  3.507919512062E-01 -1.833672245158E-03
H83  2.792571881583E-01  4.841659474742E-01  1.343561373095E-01
H84 -2.792571881583E-01 -4.841659474742E-01 -1.343561373095E-01


#===END

data_OPT_STEP_37

_symmetry_space_group_name_H-M 'P 1'
_cell_length_a      6.43189435
_cell_length_b      7.81514176
_cell_length_c     16.54222427
_cell_angle_alpha   98.591028
_cell_angle_beta   92.264329
_cell_angle_gamma   95.943692

loop_
_atom_site_label
_atom_site_fract_x
_atom_site_fract_y
_atom_site_fract_z
C1  4.442491674864E-02  2.352975750197E-01  3.269627191331E-01
C2 -4.442491674864E-02 -2.352975750197E-01 -3.269627191331E-01
C3  9.481741424219E-02  3.469547572687E-01  3.990945385452E-01
C4 -9.481741424219E-02 -3.469547572687E-01 -3.990945385452E-01
C5  2.988797632070E-01  4.466869978818E-01  4.138888603663E-01
C6 -2.988797632070E-01 -4.466869978818E-01 -4.138888603663E-01
C7  4.472154430023E-01  4.310807183037E-01  3.562380256325E-01
C8 -4.472154430023E-01 -4.310807183037E-01 -3.562380256325E-01
C9  4.016857167191E-01  3.151189985916E-01  2.790696178149E-01
C10 -4.016857167191E-01 -3.151189985916E-01 -2.790696178149E-01
C11  1.943555298019E-01  2.154541473731E-01  2.639163145107E-01
C12 -1.943555298019E-01 -2.154541473731E-01 -2.639163145107E-01
C13  1.460213034629E-01  1.033438654980E-01  1.898877909836E-01
C14 -1.460213034629E-01 -1.033438654980E-01 -1.898877909836E-01
C15  2.948014282975E-01  8.357021502033E-02  1.280189313271E-01
C16 -2.948014282975E-01 -8.357021502033E-02 -1.280189313271E-01
C17 -4.971003316182E-01  1.826633630775E-01  1.433744988769E-01
C18  4.971003316182E-01 -1.826633630775E-01 -1.433744988769E-01
C19 -4.506856436573E-01  2.971827378017E-01  2.193478926963E-01
C20  4.506856436573E-01 -2.971827378017E-01 -2.193478926963E-01
C21  2.470752092884E-01 -2.951676026765E-02  5.328942832559E-02
C22 -2.470752092884E-01  2.951676026765E-02 -5.328942832559E-02
C23  3.958054102262E-01 -4.951535883483E-02 -7.698139289609E-03
C24 -3.958054102262E-01  4.951535883483E-02  7.698139289609E-03
C25 -3.488159633527E-01  1.634729199399E-01  8.294652907680E-02
C26  3.488159633527E-01 -1.634729199399E-01 -8.294652907680E-02
C27 -4.414152075331E-01 -1.163507404488E-01  3.033966757291E-01
C28  4.414152075331E-01  1.163507404488E-01 -3.033966757291E-01
C29 -3.991197463982E-01 -7.530697109282E-02  3.866434784214E-01
C30  3.991197463982E-01  7.530697109282E-02 -3.866434784214E-01
C31 -2.120663739785E-01 -1.241648300997E-01  4.247503154211E-01
C32  2.120663739785E-01  1.241648300997E-01 -4.247503154211E-01
C33 -7.144204222783E-02 -2.104428658341E-01  3.779939386892E-01
C34  7.144204222783E-02  2.104428658341E-01 -3.779939386892E-01
C35 -1.089216089021E-01 -2.570902715208E-01  2.899771979464E-01
C36  1.089216089021E-01  2.570902715208E-01 -2.899771979464E-01
C37 -2.997558166727E-01 -2.096727725969E-01  2.517552792497E-01
C38  2.997558166727E-01  2.096727725969E-01 -2.517552792497E-01
C39 -3.396662170034E-01 -2.528599596964E-01  1.670145015451E-01
C40  3.396662170034E-01  2.528599596964E-01 -1.670145015451E-01
C41 -1.981561903192E-01 -3.434012763257E-01  1.163661294904E-01
C42  1.981561903192E-01  3.434012763257E-01 -1.163661294904E-01
C43 -6.815190742924E-03 -3.906839888920E-01  1.546624815731E-01
C44  6.815190742924E-03  3.906839888920E-01 -1.546624815731E-01
C45  3.122452841617E-02 -3.456941445124E-01  2.414390695408E-01
C46 -3.122452841617E-02  3.456941445124E-01 -2.414390695408E-01
C47 -2.371293029827E-01 -3.869527974925E-01  3.082970109051E-02
C48  2.371293029827E-01  3.869527974925E-01 -3.082970109051E-02
C49 -9.577342799010E-02 -4.763507671922E-01 -1.916717475171E-02
C50  9.577342799010E-02  4.763507671922E-01  1.916717475171E-02
C51  1.341696533985E-01 -4.795618207352E-01  1.052858461377E-01
C52 -1.341696533985E-01  4.795618207352E-01 -1.052858461377E-01
H53 -1.123488734581E-01  1.587181740761E-01  3.157703459066E-01
H54  1.123488734581E-01 -1.587181740761E-01 -3.157703459066E-01
H55 -2.133112244940E-02  3.609325942194E-01  4.470219125278E-01
H56  2.133112244940E-02 -3.609325942194E-01 -4.470219125278E-01
H57  3.359247476101E-01 -4.636041953163E-01  4.726987822263E-01
H58 -3.359247476101E-01  4.636041953163E-01 -4.726987822263E-01
H59 -3.958215282886E-01 -4.923933871998E-01  3.677206148264E-01
H60  3.958215282886E-01  4.923933871998E-01 -3.677206148264E-01
H61 -1.146747488571E-02  2.760787443213E-02  1.784349072239E-01
H62  1.146747488571E-02 -2.760787443213E-02 -1.784349072239E-01
H63 -2.931869663189E-01  3.728985782984E-01  2.308971333506E-01
H64  2.931869663189E-01 -3.728985782984E-01 -2.308971333506E-01
H65  8.942454371932E-02 -1.050340716135E-01  4.179571342480E-02
H66 -8.942454371932E-02  1.050340716135E-01 -4.179571342480E-02
H67 -1.911184264907E-01  2.389227783371E-01  9.451748823365E-02
H68  1.911184264907E-01 -2.389227783371E-01 -9.451748823365E-02
H69  4.151439471227E-01 -7.817701810104E-02  2.743269147834E-01
H70 -4.151439471227E-01  7.817701810104E-02 -2.743269147834E-01
H71  4.921985947003E-01 -1.291522828239E-03  4.250910708591E-01
H72 -4.921985947003E-01  1.291522828239E-03 -4.250910708591E-01
H73 -1.814492590377E-01 -9.045615912422E-02  4.922207351735E-01
H74  1.814492590377E-01  9.045615912422E-02 -4.922207351735E-01
H75  7.442789622568E-02 -2.462194363861E-01  4.064741133436E-01
H76 -7.442789622568E-02  2.462194363861E-01 -4.064741133436E-01
H77 -4.842840594868E-01 -2.162579727646E-01  1.379321225017E-01
H78  4.842840594868E-01  2.162579727646E-01 -1.379321225017E-01
H79  1.758838719969E-01 -3.820978882048E-01  2.705917393511E-01
H80 -1.758838719969E-01  3.820978882048E-01 -2.705917393511E-01
H81 -3.819682594017E-01 -3.506981033238E-01  1.739154473962E-03
H82  3.819682594017E-01  3.506981033238E-01 -1.739154473962E-03
H83  2.790506448911E-01  4.843461240008E-01  1.344285971484E-01
H84 -2.790506448911E-01 -4.843461240008E-01 -1.344285971484E-01


#===END

data_OPT_STEP_38

_symmetry_space_group_name_H-M 'P 1'
_cell_length_a      6.43292414
_cell_length_b      7.81518186
_cell_length_c     16.54152491
_cell_angle_alpha   98.592804
_cell_angle_beta   92.267048
_cell_angle_gamma   95.951070

loop_
_atom_site_label
_atom_site_fract_x
_atom_site_fract_y
_atom_site_fract_z
C1  4.436143954299E-02  2.353117887457E-01  3.269309314759E-01
C2 -4.436143954299E-02 -2.353117887457E-01 -3.269309314759E-01
C3  9.476870966163E-02  3.468989765241E-01  3.990864721620E-01
C4 -9.476870966163E-02 -3.468989765241E-01 -3.990864721620E-01
C5  2.988218024012E-01  4.466121802241E-01  4.139020517038E-01
C6 -2.988218024012E-01 -4.466121802241E-01 -4.139020517038E-01
C7  4.471485855020E-01  4.310262417663E-01  3.562573876066E-01
C8 -4.471485855020E-01 -4.310262417663E-01 -3.562573876066E-01
C9  4.016227070639E-01  3.151014440878E-01  2.790749071338E-01
C10 -4.016227070639E-01 -3.151014440878E-01 -2.790749071338E-01
C11  1.942891944366E-01  2.154784897785E-01  2.638930704426E-01
C12 -1.942891944366E-01 -2.154784897785E-01 -2.638930704426E-01
C13  1.459368127804E-01  1.034453639510E-01  1.898380428700E-01
C14 -1.459368127804E-01 -1.034453639510E-01 -1.898380428700E-01
C15  2.947326052200E-01  8.365522383450E-02  1.279846117062E-01
C16 -2.947326052200E-01 -8.365522383450E-02 -1.279846117062E-01
C17 -4.972093476597E-01  1.827862158890E-01  1.433505406166E-01
C18  4.972093476597E-01 -1.827862158890E-01 -1.433505406166E-01
C19 -4.507764849332E-01  2.972244619950E-01  2.193507273026E-01
C20  4.507764849332E-01 -2.972244619950E-01 -2.193507273026E-01
C21  2.470915018479E-01 -2.954309566009E-02  5.327382120542E-02
C22 -2.470915018479E-01  2.954309566009E-02 -5.327382120542E-02
C23  3.958314922143E-01 -4.954414717159E-02 -7.700940745627E-03
C24 -3.958314922143E-01  4.954414717159E-02  7.700940745627E-03
C25 -3.488984504482E-01  1.635606228314E-01  8.294330947765E-02
C26  3.488984504482E-01 -1.635606228314E-01 -8.294330947765E-02
C27 -4.413117110890E-01 -1.162950036199E-01  3.033864174842E-01
C28  4.413117110890E-01  1.162950036199E-01 -3.033864174842E-01
C29 -3.990064057464E-01 -7.518818235472E-02  3.866351002227E-01
C30  3.990064057464E-01  7.518818235472E-02 -3.866351002227E-01
C31 -2.120436114480E-01 -1.241055301300E-01  4.247599855618E-01
C32  2.120436114480E-01  1.241055301300E-01 -4.247599855618E-01
C33 -7.144058206077E-02 -2.103929845554E-01  3.780103968352E-01
C34  7.144058206077E-02  2.103929845554E-01 -3.780103968352E-01
C35 -1.088598181744E-01 -2.569994785070E-01  2.899840074723E-01
C36  1.088598181744E-01  2.569994785070E-01 -2.899840074723E-01
C37 -2.996774751752E-01 -2.096268249713E-01  2.517532184992E-01
C38  2.996774751752E-01  2.096268249713E-01 -2.517532184992E-01
C39 -3.395800299831E-01 -2.528351733420E-01  1.670074483782E-01
C40  3.395800299831E-01  2.528351733420E-01 -1.670074483782E-01
C41 -1.981032216647E-01 -3.433834457641E-01  1.163635018405E-01
C42  1.981032216647E-01  3.433834457641E-01 -1.163635018405E-01
C43 -6.796259071926E-03 -3.906461088922E-01  1.546692503260E-01
C44  6.796259071926E-03  3.906461088922E-01 -1.546692503260E-01
C45  3.125226251417E-02 -3.456183341655E-01  2.414500621741E-01
C46 -3.125226251417E-02  3.456183341655E-01 -2.414500621741E-01
C47 -2.370874793369E-01 -3.869700505959E-01  3.082304521682E-02
C48  2.370874793369E-01  3.869700505959E-01 -3.082304521682E-02
C49 -9.575673983348E-02 -4.763612822083E-01 -1.917164108241E-02
C50  9.575673983348E-02  4.763612822083E-01  1.917164108241E-02
C51  1.341373266155E-01 -4.795560468545E-01  1.052969262805E-01
C52 -1.341373266155E-01  4.795560468545E-01 -1.052969262805E-01
H53 -1.124012873985E-01  1.587350293184E-01  3.157234342873E-01
H54  1.124012873985E-01 -1.587350293184E-01 -3.157234342873E-01
H55 -2.135996328581E-02  3.608389259892E-01  4.470140156395E-01
H56  2.135996328581E-02 -3.608389259892E-01 -4.470140156395E-01
H57  3.358645196793E-01 -4.637064474478E-01  4.727217290839E-01
H58 -3.358645196793E-01  4.637064474478E-01 -4.727217290839E-01
H59 -3.959212521621E-01 -4.924160442879E-01  3.677496856715E-01
H60  3.959212521621E-01  4.924160442879E-01 -3.677496856715E-01
H61 -1.151393246376E-02  2.765333020025E-02  1.783816591375E-01
H62  1.151393246376E-02 -2.765333020025E-02 -1.783816591375E-01
H63 -2.932807940070E-01  3.729338759668E-01  2.309202278962E-01
H64  2.932807940070E-01 -3.729338759668E-01 -2.309202278962E-01
H65  8.948823429737E-02 -1.051271625561E-01  4.177887226774E-02
H66 -8.948823429737E-02  1.051271625561E-01 -4.177887226774E-02
H67 -1.912223779892E-01  2.390225144392E-01  9.452861328972E-02
H68  1.912223779892E-01 -2.390225144392E-01 -9.452861328972E-02
H69  4.152981418652E-01 -7.809899468829E-02  2.743030215459E-01
H70 -4.152981418652E-01  7.809899468829E-02 -2.743030215459E-01
H71  4.923068638109E-01 -1.187824291380E-03  4.250752961882E-01
H72 -4.923068638109E-01  1.187824291380E-03 -4.250752961882E-01
H73 -1.814740381979E-01 -9.044134756742E-02  4.922362419782E-01
H74  1.814740381979E-01  9.044134756742E-02 -4.922362419782E-01
H75  7.435342498111E-02 -2.462136284638E-01  4.065147778414E-01
H76 -7.435342498111E-02  2.462136284638E-01 -4.065147778414E-01
H77 -4.841826215341E-01 -2.162535661591E-01  1.379174642829E-01
H78  4.841826215341E-01  2.162535661591E-01 -1.379174642829E-01
H79  1.758454763544E-01 -3.820678037808E-01  2.706152396721E-01
H80 -1.758454763544E-01  3.820678037808E-01 -2.706152396721E-01
H81 -3.818916930258E-01 -3.507108266772E-01  1.724798399691E-03
H82  3.818916930258E-01  3.507108266772E-01 -1.724798399691E-03
H83  2.789729416570E-01  4.843333649316E-01  1.344484581159E-01
H84 -2.789729416570E-01 -4.843333649316E-01 -1.344484581159E-01


#===END

data_OPT_STEP_39

_symmetry_space_group_name_H-M 'P 1'
_cell_length_a      6.43493914
_cell_length_b      7.81436836
_cell_length_c     16.53961094
_cell_angle_alpha   98.594980
_cell_angle_beta   92.280799
_cell_angle_gamma   95.968743

loop_
_atom_site_label
_atom_site_fract_x
_atom_site_fract_y
_atom_site_fract_z
C1  4.427650227561E-02  2.353582219893E-01  3.268561827680E-01
C2 -4.427650227561E-02 -2.353582219893E-01 -3.268561827680E-01
C3  9.474597303093E-02  3.468012912717E-01  3.990675721901E-01
C4 -9.474597303093E-02 -3.468012912717E-01 -3.990675721901E-01
C5  2.988395404543E-01  4.464119497143E-01  4.139546305300E-01
C6 -2.988395404543E-01 -4.464119497143E-01 -4.139546305300E-01
C7  4.471212429092E-01  4.309038732687E-01  3.563195529350E-01
C8 -4.471212429092E-01 -4.309038732687E-01 -3.563195529350E-01
C9  4.015397617922E-01  3.151223952937E-01  2.790848232434E-01
C10 -4.015397617922E-01 -3.151223952937E-01 -2.790848232434E-01
C11  1.941747221039E-01  2.155832057944E-01  2.638306371834E-01
C12 -1.941747221039E-01 -2.155832057944E-01 -2.638306371834E-01
C13  1.458391477383E-01  1.035602712595E-01  1.897495185756E-01
C14 -1.458391477383E-01 -1.035602712595E-01 -1.897495185756E-01
C15  2.947022269606E-01  8.366645127041E-02  1.279498086831E-01
C16 -2.947022269606E-01 -8.366645127041E-02 -1.279498086831E-01
C17 -4.973080150683E-01  1.828967163764E-01  1.433452208269E-01
C18  4.973080150683E-01 -1.828967163764E-01 -1.433452208269E-01
C19 -4.509100117067E-01  2.973501091402E-01  2.193642543233E-01
C20  4.509100117067E-01 -2.973501091402E-01 -2.193642543233E-01
C21  2.471286250920E-01 -2.961342168380E-02  5.323551599709E-02
C22 -2.471286250920E-01  2.961342168380E-02 -5.323551599709E-02
C23  3.958712491320E-01 -4.960204289474E-02 -7.713498377688E-03
C24 -3.958712491320E-01  4.960204289474E-02  7.713498377688E-03
C25 -3.490034669301E-01  1.636989269182E-01  8.295964090151E-02
C26  3.490034669301E-01 -1.636989269182E-01 -8.295964090151E-02
C27 -4.412448339563E-01 -1.162647403596E-01  3.033503444190E-01
C28  4.412448339563E-01  1.162647403596E-01 -3.033503444190E-01
C29 -3.989688894933E-01 -7.512874968613E-02  3.866164526528E-01
C30  3.989688894933E-01  7.512874968613E-02 -3.866164526528E-01
C31 -2.121130119489E-01 -1.240583785944E-01  4.247779735445E-01
C32  2.121130119489E-01  1.240583785944E-01 -4.247779735445E-01
C33 -7.161567857235E-02 -2.104433015696E-01  3.780532176404E-01
C34  7.161567857235E-02  2.104433015696E-01 -3.780532176404E-01
C35 -1.088578984936E-01 -2.568814053553E-01  2.899967159354E-01
C36  1.088578984936E-01  2.568814053553E-01 -2.899967159354E-01
C37 -2.996053802692E-01 -2.095434862631E-01  2.517318746504E-01
C38  2.996053802692E-01  2.095434862631E-01 -2.517318746504E-01
C39 -3.394601182843E-01 -2.527608493530E-01  1.669663827014E-01
C40  3.394601182843E-01  2.527608493530E-01 -1.669663827014E-01
C41 -1.980142037101E-01 -3.433014216689E-01  1.163388093429E-01
C42  1.980142037101E-01  3.433014216689E-01 -1.163388093429E-01
C43 -6.777175590286E-03 -3.905185088506E-01  1.546800525804E-01
C44  6.777175590286E-03  3.905185088506E-01 -1.546800525804E-01
C45  3.120222355482E-02 -3.455135488766E-01  2.414806071928E-01
C46 -3.120222355482E-02  3.455135488766E-01 -2.414806071928E-01
C47 -2.369725024221E-01 -3.869290163706E-01  3.078146720896E-02
C48  2.369725024221E-01  3.869290163706E-01 -3.078146720896E-02
C49 -9.573758170787E-02 -4.764090069440E-01 -1.918831688155E-02
C50  9.573758170787E-02  4.764090069440E-01  1.918831688155E-02
C51  1.341038149368E-01 -4.794470613561E-01  1.053277029169E-01
C52 -1.341038149368E-01  4.794470613561E-01 -1.053277029169E-01
H53 -1.125011031496E-01  1.588430376377E-01  3.155964569084E-01
H54  1.125011031496E-01 -1.588430376377E-01 -3.155964569084E-01
H55 -2.134095947118E-02  3.606977560617E-01  4.469890020321E-01
H56  2.134095947118E-02 -3.606977560617E-01 -4.469890020321E-01
H57  3.357687182855E-01 -4.637422608476E-01  4.727517971108E-01
H58 -3.357687182855E-01  4.637422608476E-01 -4.727517971108E-01
H59 -3.960809027588E-01 -4.923281707262E-01  3.678061082574E-01
H60  3.960809027588E-01  4.923281707262E-01 -3.678061082574E-01
H61 -1.153098828625E-02  2.762787705073E-02  1.782824854159E-01
H62  1.153098828625E-02 -2.762787705073E-02 -1.782824854159E-01
H63 -2.934445678176E-01  3.731014324276E-01  2.309697753343E-01
H64  2.934445678176E-01 -3.731014324276E-01 -2.309697753343E-01
H65  8.953441841875E-02 -1.051902130490E-01  4.169478353433E-02
H66 -8.953441841875E-02  1.051902130490E-01 -4.169478353433E-02
H67 -1.913529694678E-01  2.391762229540E-01  9.458475192608E-02
H68  1.913529694678E-01 -2.391762229540E-01 -9.458475192608E-02
H69  4.155315386885E-01 -7.792638162509E-02  2.742241465291E-01
H70 -4.155315386885E-01  7.792638162509E-02 -2.742241465291E-01
H71  4.923643808880E-01 -1.174948371416E-03  4.250540471515E-01
H72 -4.923643808880E-01  1.174948371416E-03 -4.250540471515E-01
H73 -1.816361641891E-01 -9.047597653306E-02  4.922719396947E-01
H74  1.816361641891E-01  9.047597653306E-02 -4.922719396947E-01
H75  7.409352603169E-02 -2.462459850019E-01  4.066088145061E-01
H76 -7.409352603169E-02  2.462459850019E-01 -4.066088145061E-01
H77 -4.841613079905E-01 -2.164219859265E-01  1.378608216317E-01
H78  4.841613079905E-01  2.164219859265E-01 -1.378608216317E-01
H79  1.756466459630E-01 -3.820666042084E-01  2.706853988943E-01
H80 -1.756466459630E-01  3.820666042084E-01 -2.706853988943E-01
H81 -3.817617886322E-01 -3.507548607183E-01  1.656212372673E-03
H82  3.817617886322E-01  3.507548607183E-01 -1.656212372673E-03
H83  2.789150426426E-01  4.845196016028E-01  1.345067304329E-01
H84 -2.789150426426E-01 -4.845196016028E-01 -1.345067304329E-01


#===END

data_OPT_STEP_40

_symmetry_space_group_name_H-M 'P 1'
_cell_length_a      6.43573101
_cell_length_b      7.81537334
_cell_length_c     16.53840942
_cell_angle_alpha   98.608602
_cell_angle_beta   92.304176
_cell_angle_gamma   95.974253

loop_
_atom_site_label
_atom_site_fract_x
_atom_site_fract_y
_atom_site_fract_z
C1  4.421250814512E-02  2.352041181621E-01  3.268122843607E-01
C2 -4.421250814512E-02 -2.352041181621E-01 -3.268122843607E-01
C3  9.465575679086E-02  3.466432259138E-01  3.990536435671E-01
C4 -9.465575679086E-02 -3.466432259138E-01 -3.990536435671E-01
C5  2.987051181323E-01  4.463236979098E-01  4.139869023107E-01
C6 -2.987051181323E-01 -4.463236979098E-01 -4.139869023107E-01
C7  4.469772040091E-01  4.308682800024E-01  3.563713780055E-01
C8 -4.469772040091E-01 -4.308682800024E-01 -3.563713780055E-01
C9  4.014409265970E-01  3.150620902137E-01  2.791157600234E-01
C10 -4.014409265970E-01 -3.150620902137E-01 -2.791157600234E-01
C11  1.941144115259E-01  2.154686977224E-01  2.638100583403E-01
C12 -1.941144115259E-01 -2.154686977224E-01 -2.638100583403E-01
C13  1.457953648329E-01  1.034788561474E-01  1.896937226626E-01
C14 -1.457953648329E-01 -1.034788561474E-01 -1.896937226626E-01
C15  2.946537101362E-01  8.364552101726E-02  1.279135406988E-01
C16 -2.946537101362E-01 -8.364552101726E-02 -1.279135406988E-01
C17 -4.973926733854E-01  1.829256611516E-01  1.433621297756E-01
C18  4.973926733854E-01 -1.829256611516E-01 -1.433621297756E-01
C19 -4.510149075125E-01  2.973471369975E-01  2.194148541757E-01
C20  4.510149075125E-01 -2.973471369975E-01 -2.194148541757E-01
C21  2.471512632605E-01 -2.969853647024E-02  5.318860571164E-02
C22 -2.471512632605E-01  2.969853647024E-02 -5.318860571164E-02
C23  3.958939002697E-01 -4.963388046584E-02 -7.738476017640E-03
C24 -3.958939002697E-01  4.963388046584E-02  7.738476017640E-03
C25 -3.490737496296E-01  1.637536441010E-01  8.300512088716E-02
C26  3.490737496296E-01 -1.637536441010E-01 -8.300512088716E-02
C27 -4.412725226354E-01 -1.163198513155E-01  3.033164461327E-01
C28  4.412725226354E-01  1.163198513155E-01 -3.033164461327E-01
C29 -3.989993126138E-01 -7.515140941638E-02  3.866003022444E-01
C30  3.989993126138E-01  7.515140941638E-02 -3.866003022444E-01
C31 -2.121703029643E-01 -1.240467664051E-01  4.247975394632E-01
C32  2.121703029643E-01  1.240467664051E-01 -4.247975394632E-01
C33 -7.169252844133E-02 -2.104297221794E-01  3.780909248032E-01
C34  7.169252844133E-02  2.104297221794E-01 -3.780909248032E-01
C35 -1.089089741183E-01 -2.568787590765E-01  2.900166615405E-01
C36  1.089089741183E-01  2.568787590765E-01 -2.900166615405E-01
C37 -2.996342012604E-01 -2.095773294253E-01  2.517148617625E-01
C38  2.996342012604E-01  2.095773294253E-01 -2.517148617625E-01
C39 -3.394846416103E-01 -2.528330547390E-01  1.669320811871E-01
C40  3.394846416103E-01  2.528330547390E-01 -1.669320811871E-01
C41 -1.980419692934E-01 -3.433558833205E-01  1.163218380119E-01
C42  1.980419692934E-01  3.433558833205E-01 -1.163218380119E-01
C43 -6.839668344777E-03 -3.905504617699E-01  1.547022792917E-01
C44  6.839668344777E-03  3.905504617699E-01 -1.547022792917E-01
C45  3.112812027233E-02 -3.455182372523E-01  2.415199782621E-01
C46 -3.112812027233E-02  3.455182372523E-01 -2.415199782621E-01
C47 -2.369599668540E-01 -3.869695836438E-01  3.074424184339E-02
C48  2.369599668540E-01  3.869695836438E-01 -3.074424184339E-02
C49 -9.570994723453E-02 -4.764061023716E-01 -1.920879171161E-02
C50  9.570994723453E-02  4.764061023716E-01  1.920879171161E-02
C51  1.340139269425E-01 -4.794947349111E-01  1.053701971904E-01
C52 -1.340139269425E-01  4.794947349111E-01 -1.053701971904E-01
H53 -1.125474634836E-01  1.586648794223E-01  3.155140504485E-01
H54  1.125474634836E-01 -1.586648794223E-01 -3.155140504485E-01
H55 -2.142086929382E-02  3.605022813520E-01  4.469611909175E-01
H56  2.142086929382E-02 -3.605022813520E-01 -4.469611909175E-01
H57  3.356126195368E-01 -4.638260907507E-01  4.728017284925E-01
H58 -3.356126195368E-01  4.638260907507E-01 -4.728017284925E-01
H59 -3.962647169983E-01 -4.923063357134E-01  3.678898768147E-01
H60  3.962647169983E-01  4.923063357134E-01 -3.678898768147E-01
H61 -1.155568098998E-02  2.751308945822E-02  1.781887165295E-01
H62  1.155568098998E-02 -2.751308945822E-02 -1.781887165295E-01
H63 -2.935554327695E-01  3.731092211890E-01  2.310659188394E-01
H64  2.935554327695E-01 -3.731092211890E-01 -2.310659188394E-01
H65  8.961201369857E-02 -1.053697153587E-01  4.162453442431E-02
H66 -8.961201369857E-02  1.053697153587E-01 -4.162453442431E-02
H67 -1.914590184368E-01  2.392820455810E-01  9.466416488032E-02
H68  1.914590184368E-01 -2.392820455810E-01 -9.466416488032E-02
H69  4.155030956500E-01 -7.803330855596E-02  2.741639934399E-01
H70 -4.155030956500E-01  7.803330855596E-02 -2.741639934399E-01
H71  4.923462964138E-01 -1.211905063327E-03  4.250291128154E-01
H72 -4.923462964138E-01  1.211905063327E-03 -4.250291128154E-01
H73 -1.816976473110E-01 -9.044482085937E-02  4.923029250534E-01
H74  1.816976473110E-01  9.044482085937E-02 -4.923029250534E-01
H75  7.399603824858E-02 -2.461929896830E-01  4.066830843633E-01
H76 -7.399603824858E-02  2.461929896830E-01 -4.066830843633E-01
H77 -4.841775360536E-01 -2.165304474376E-01  1.377992316490E-01
H78  4.841775360536E-01  2.165304474376E-01 -1.377992316490E-01
H79  1.755308971152E-01 -3.820729025215E-01  2.707554685498E-01
H80 -1.755308971152E-01  3.820729025215E-01 -2.707554685498E-01
H81 -3.817188799596E-01 -3.508054199619E-01  1.589993166240E-03
H82  3.817188799596E-01  3.508054199619E-01 -1.589993166240E-03
H83  2.787634458357E-01  4.844395054179E-01  1.345810974028E-01
H84 -2.787634458357E-01 -4.844395054179E-01 -1.345810974028E-01


#===END

data_OPT_STEP_41

_symmetry_space_group_name_H-M 'P 1'
_cell_length_a      6.44016689
_cell_length_b      7.81365940
_cell_length_c     16.53084352
_cell_angle_alpha   98.602178
_cell_angle_beta   92.333803
_cell_angle_gamma   95.996951

loop_
_atom_site_label
_atom_site_fract_x
_atom_site_fract_y
_atom_site_fract_z
C1  4.431991952825E-02  2.351059799308E-01  3.267990124775E-01
C2 -4.431991952825E-02 -2.351059799308E-01 -3.267990124775E-01
C3  9.464427373168E-02  3.466843036186E-01  3.990646970708E-01
C4 -9.464427373168E-02 -3.466843036186E-01 -3.990646970708E-01
C5  2.985350332098E-01  4.465402390685E-01  4.140504575520E-01
C6 -2.985350332098E-01 -4.465402390685E-01 -4.140504575520E-01
C7  4.467881847627E-01  4.310593081269E-01  3.564702618905E-01
C8 -4.467881847627E-01 -4.310593081269E-01 -3.564702618905E-01
C9  4.013697802324E-01  3.151118723348E-01  2.791910328242E-01
C10 -4.013697802324E-01 -3.151118723348E-01 -2.791910328242E-01
C11  1.941745499521E-01  2.154090185785E-01  2.638197615428E-01
C12 -1.941745499521E-01 -2.154090185785E-01 -2.638197615428E-01
C13  1.458382271486E-01  1.035270071443E-01  1.896249954651E-01
C14 -1.458382271486E-01 -1.035270071443E-01 -1.896249954651E-01
C15  2.945991835171E-01  8.381597188796E-02  1.278470892580E-01
C16 -2.945991835171E-01 -8.381597188796E-02 -1.278470892580E-01
C17 -4.975983130643E-01  1.832402425186E-01  1.433502456486E-01
C18  4.975983130643E-01 -1.832402425186E-01 -1.433502456486E-01
C19 -4.512238030473E-01  2.975917317271E-01  2.194749960332E-01
C20  4.512238030473E-01 -2.975917317271E-01 -2.194749960332E-01
C21  2.472501031307E-01 -2.974603542558E-02  5.312341139342E-02
C22 -2.472501031307E-01  2.974603542558E-02 -5.312341139342E-02
C23  3.959615062170E-01 -4.968936072515E-02 -7.769619527081E-03
C24 -3.959615062170E-01  4.968936072515E-02  7.769619527081E-03
C25 -3.492227148121E-01  1.638984586036E-01  8.306703219848E-02
C26  3.492227148121E-01 -1.638984586036E-01 -8.306703219848E-02
C27 -4.410489924657E-01 -1.161221825603E-01  3.032394157789E-01
C28  4.410489924657E-01  1.161221825603E-01 -3.032394157789E-01
C29 -3.987682353347E-01 -7.480628613040E-02  3.865636554014E-01
C30  3.987682353347E-01  7.480628613040E-02 -3.865636554014E-01
C31 -2.122786816673E-01 -1.239140185315E-01  4.248633290668E-01
C32  2.122786816673E-01  1.239140185315E-01 -4.248633290668E-01
C33 -7.187780826901E-02 -2.102962865443E-01  3.781960063528E-01
C34  7.187780826901E-02  2.102962865443E-01 -3.781960063528E-01
C35 -1.089692260843E-01 -2.567336268064E-01  2.900735245180E-01
C36  1.089692260843E-01  2.567336268064E-01 -2.900735245180E-01
C37 -2.995605878089E-01 -2.095041039506E-01  2.516861521512E-01
C38  2.995605878089E-01  2.095041039506E-01 -2.516861521512E-01
C39 -3.393123924168E-01 -2.527727033020E-01  1.668535386008E-01
C40  3.393123924168E-01  2.527727033020E-01 -1.668535386008E-01
C41 -1.979251222366E-01 -3.432743954623E-01  1.162799319132E-01
C42  1.979251222366E-01  3.432743954623E-01 -1.162799319132E-01
C43 -6.866674404537E-03 -3.903975241977E-01  1.547484660412E-01
C44  6.866674404537E-03  3.903975241977E-01 -1.547484660412E-01
C45  3.098246046604E-02 -3.453849932400E-01  2.416165849027E-01
C46 -3.098246046604E-02  3.453849932400E-01 -2.416165849027E-01
C47 -2.368296146862E-01 -3.870245825970E-01  3.066134773201E-02
C48  2.368296146862E-01  3.870245825970E-01 -3.066134773201E-02
C49 -9.565183531875E-02 -4.764636520179E-01 -1.925177374100E-02
C50  9.565183531875E-02  4.764636520179E-01  1.925177374100E-02
C51  1.339671064631E-01 -4.792630091079E-01  1.054506006924E-01
C52 -1.339671064631E-01  4.792630091079E-01 -1.054506006924E-01
H53 -1.122903243959E-01  1.584013649222E-01  3.154609389895E-01
H54  1.122903243959E-01 -1.584013649222E-01 -3.154609389895E-01
H55 -2.135412453530E-02  3.604333692500E-01  4.469646103188E-01
H56  2.135412453530E-02 -3.604333692500E-01 -4.469646103188E-01
H57  3.353210639261E-01 -4.635152641863E-01  4.728867875984E-01
H58 -3.353210639261E-01  4.635152641863E-01 -4.728867875984E-01
H59 -3.965733466593E-01 -4.920050196008E-01  3.680437679404E-01
H60  3.965733466593E-01  4.920050196008E-01 -3.680437679404E-01
H61 -1.141455996733E-02  2.746740376488E-02  1.780625923648E-01
H62  1.141455996733E-02 -2.746740376488E-02 -1.780625923648E-01
H63 -2.939413531548E-01  3.735843017530E-01  2.311557915971E-01
H64  2.939413531548E-01 -3.735843017530E-01 -2.311557915971E-01
H65  8.985471149460E-02 -1.055833756110E-01  4.152052322540E-02
H66 -8.985471149460E-02  1.055833756110E-01 -4.152052322540E-02
H67 -1.916786515420E-01  2.394467201030E-01  9.480164493830E-02
H68  1.916786515420E-01 -2.394467201030E-01 -9.480164493830E-02
H69  4.158186831692E-01 -7.791820679756E-02  2.740153034639E-01
H70 -4.158186831692E-01  7.791820679756E-02 -2.740153034639E-01
H71  4.926795497056E-01 -8.815964141612E-04  4.249836993637E-01
H72 -4.926795497056E-01  8.815964141612E-04 -4.249836993637E-01
H73 -1.819290618712E-01 -9.037530553305E-02  4.924104515081E-01
H74  1.819290618712E-01  9.037530553305E-02 -4.924104515081E-01
H75  7.356389050455E-02 -2.461372082724E-01  4.069054546370E-01
H76 -7.356389050455E-02  2.461372082724E-01 -4.069054546370E-01
H77 -4.838215750571E-01 -2.164105624263E-01  1.376397396390E-01
H78  4.838215750571E-01  2.164105624263E-01 -1.376397396390E-01
H79  1.751859600749E-01 -3.819919909395E-01  2.709352252904E-01
H80 -1.751859600749E-01  3.819919909395E-01 -2.709352252904E-01
H81 -3.814339231018E-01 -3.508568684667E-01  1.430156339792E-03
H82  3.814339231018E-01  3.508568684667E-01 -1.430156339792E-03
H83  2.786249698604E-01  4.847715118345E-01  1.347321400865E-01
H84 -2.786249698604E-01 -4.847715118345E-01 -1.347321400865E-01


#===END

data_OPT_STEP_42

_symmetry_space_group_name_H-M 'P 1'
_cell_length_a      6.44086581
_cell_length_b      7.81433592
_cell_length_c     16.52949304
_cell_angle_alpha   98.605778
_cell_angle_beta   92.342435
_cell_angle_gamma   96.003608

loop_
_atom_site_label
_atom_site_fract_x
_atom_site_fract_y
_atom_site_fract_z
C1  4.426274152846E-02  2.351123938015E-01  3.267703495278E-01
C2 -4.426274152846E-02 -2.351123938015E-01 -3.267703495278E-01
C3  9.458186282566E-02  3.466698236691E-01  3.990540129455E-01
C4 -9.458186282566E-02 -3.466698236691E-01 -3.990540129455E-01
C5  2.984521765776E-01  4.465465697667E-01  4.140612918724E-01
C6 -2.984521765776E-01 -4.465465697667E-01 -4.140612918724E-01
C7  4.467056541664E-01  4.310769742963E-01  3.564906892045E-01
C8 -4.467056541664E-01 -4.310769742963E-01 -3.564906892045E-01
C9  4.013020673917E-01  3.151336451970E-01  2.791979360571E-01
C10 -4.013020673917E-01 -3.151336451970E-01 -2.791979360571E-01
C11  1.941172847344E-01  2.154292354321E-01  2.638004078875E-01
C12 -1.941172847344E-01 -2.154292354321E-01 -2.638004078875E-01
C13  1.458115968795E-01  1.035221246363E-01  1.895987139552E-01
C14 -1.458115968795E-01 -1.035221246363E-01 -1.895987139552E-01
C15  2.945888743246E-01  8.379618455414E-02  1.278375616015E-01
C16 -2.945888743246E-01 -8.379618455414E-02 -1.278375616015E-01
C17 -4.976287724227E-01  1.832401829186E-01  1.433629589806E-01
C18  4.976287724227E-01 -1.832401829186E-01 -1.433629589806E-01
C19 -4.512733143191E-01  2.975940964651E-01  2.194993458314E-01
C20  4.512733143191E-01 -2.975940964651E-01 -2.194993458314E-01
C21  2.472606972546E-01 -2.977293840806E-02  5.310300538043E-02
C22 -2.472606972546E-01  2.977293840806E-02 -5.310300538043E-02
C23  3.959748906621E-01 -4.970487282807E-02 -7.779413194586E-03
C24 -3.959748906621E-01  4.970487282807E-02  7.779413194586E-03
C25 -3.492630267274E-01  1.639321246639E-01  8.308479010293E-02
C26  3.492630267274E-01 -1.639321246639E-01 -8.308479010293E-02
C27 -4.410092096367E-01 -1.161229287389E-01  3.032214835826E-01
C28  4.410092096367E-01  1.161229287389E-01 -3.032214835826E-01
C29 -3.987428445118E-01 -7.478832172604E-02  3.865561457253E-01
C30  3.987428445118E-01  7.478832172604E-02 -3.865561457253E-01
C31 -2.122767439890E-01 -1.238671656362E-01  4.248775627379E-01
C32  2.122767439890E-01  1.238671656362E-01 -4.248775627379E-01
C33 -7.190546588092E-02 -2.102704561797E-01  3.782224685206E-01
C34  7.190546588092E-02  2.102704561797E-01 -3.782224685206E-01
C35 -1.089726960571E-01 -2.567112976767E-01  2.900885373767E-01
C36  1.089726960571E-01  2.567112976767E-01 -2.900885373767E-01
C37 -2.995329750283E-01 -2.094984979557E-01  2.516792405677E-01
C38  2.995329750283E-01  2.094984979557E-01 -2.516792405677E-01
C39 -3.392849989269E-01 -2.527991900916E-01  1.668374213739E-01
C40  3.392849989269E-01  2.527991900916E-01 -1.668374213739E-01
C41 -1.979131983937E-01 -3.432932144342E-01  1.162729320592E-01
C42  1.979131983937E-01  3.432932144342E-01 -1.162729320592E-01
C43 -6.889943898233E-03 -3.904062647380E-01  1.547631050553E-01
C44  6.889943898233E-03  3.904062647380E-01 -1.547631050553E-01
C45  3.096643055019E-02 -3.453545571313E-01  2.416404822042E-01
C46 -3.096643055019E-02  3.453545571313E-01 -2.416404822042E-01
C47 -2.368056507362E-01 -3.870514915763E-01  3.064348623008E-02
C48  2.368056507362E-01  3.870514915763E-01 -3.064348623008E-02
C49 -9.563139869228E-02 -4.764644187458E-01 -1.926264410157E-02
C50  9.563139869228E-02  4.764644187458E-01  1.926264410157E-02
C51  1.339139131832E-01 -4.792849470149E-01  1.054746633440E-01
C52 -1.339139131832E-01  4.792849470149E-01 -1.054746633440E-01
H53 -1.123282806692E-01  1.583833046322E-01  3.154176111413E-01
H54  1.123282806692E-01 -1.583833046322E-01 -3.154176111413E-01
H55 -2.140330375230E-02  3.603841608225E-01  4.469521689855E-01
H56  2.140330375230E-02 -3.603841608225E-01 -4.469521689855E-01
H57  3.352403946344E-01 -4.635376422707E-01  4.729136642183E-01
H58 -3.352403946344E-01  4.635376422707E-01 -4.729136642183E-01
H59 -3.966607912943E-01 -4.919920764528E-01  3.680859520272E-01
H60  3.966607912943E-01  4.919920764528E-01 -3.680859520272E-01
H61 -1.142756434031E-02  2.744611587641E-02  1.780189253640E-01
H62  1.142756434031E-02 -2.744611587641E-02 -1.780189253640E-01
H63 -2.939865176613E-01  3.735717300260E-01  2.312055320916E-01
H64  2.939865176613E-01 -3.735717300260E-01 -2.312055320916E-01
H65  8.988318774701E-02 -1.056325889641E-01  4.148428973518E-02
H66 -8.988318774701E-02  1.056325889641E-01 -4.148428973518E-02
H67 -1.917446435703E-01  2.395139540761E-01  9.483239830430E-02
H68  1.917446435703E-01 -2.395139540761E-01 -9.483239830430E-02
H69  4.158747760326E-01 -7.794298167295E-02  2.739804800900E-01
H70 -4.158747760326E-01  7.794298167295E-02 -2.739804800900E-01
H71  4.927173854146E-01 -8.609112967120E-04  4.249671677217E-01
H72 -4.927173854146E-01  8.609112967121E-04 -4.249671677217E-01
H73 -1.819203581491E-01 -9.029334305329E-02  4.924307152393E-01
H74  1.819203581491E-01  9.029334305329E-02 -4.924307152393E-01
H75  7.349260792269E-02 -2.461205611235E-01  4.069555917640E-01
H76 -7.349260792269E-02  2.461205611235E-01 -4.069555917640E-01
H77 -4.837712648335E-01 -2.164467590764E-01  1.376074847916E-01
H78  4.837712648335E-01  2.164467590764E-01 -1.376074847916E-01
H79  1.751558332288E-01 -3.819345068570E-01  2.709746568441E-01
H80 -1.751558332288E-01  3.819345068570E-01 -2.709746568441E-01
H81 -3.813878472473E-01 -3.508957246061E-01  1.397235274895E-03
H82  3.813878472473E-01  3.508957246061E-01 -1.397235274895E-03
H83  2.785303359814E-01  4.847347109422E-01  1.347732361254E-01
H84 -2.785303359814E-01 -4.847347109422E-01 -1.347732361254E-01


#===END

data_OPT_STEP_43

_symmetry_space_group_name_H-M 'P 1'
_cell_length_a      6.44260574
_cell_length_b      7.81388997
_cell_length_c     16.52774495
_cell_angle_alpha   98.615891
_cell_angle_beta   92.362360
_cell_angle_gamma   96.009908

loop_
_atom_site_label
_atom_site_fract_x
_atom_site_fract_y
_atom_site_fract_z
C1  4.421866113014E-02  2.350185846997E-01  3.267226799799E-01
C2 -4.421866113014E-02 -2.350185846997E-01 -3.267226799799E-01
C3  9.453185604182E-02  3.465171758534E-01  3.990471807784E-01
C4 -9.453185604182E-02 -3.465171758534E-01 -3.990471807784E-01
C5  2.983210616258E-01  4.464783202932E-01  4.140958406771E-01
C6 -2.983210616258E-01 -4.464783202932E-01 -4.140958406771E-01
C7  4.465055324102E-01  4.311452225914E-01  3.565253096166E-01
C8 -4.465055324102E-01 -4.311452225914E-01 -3.565253096166E-01
C9  4.011328358356E-01  3.152142818190E-01  2.792033370722E-01
C10 -4.011328358356E-01 -3.152142818190E-01 -2.792033370722E-01
C11  1.940589757326E-01  2.153710256865E-01  2.637752438885E-01
C12 -1.940589757326E-01 -2.153710256865E-01 -2.637752438885E-01
C13  1.458183881415E-01  1.034146510981E-01  1.895562060545E-01
C14 -1.458183881415E-01 -1.034146510981E-01 -1.895562060545E-01
C15  2.945769780951E-01  8.374227377076E-02  1.278137901382E-01
C16 -2.945769780951E-01 -8.374227377076E-02 -1.278137901382E-01
C17 -4.976536165189E-01  1.831540727541E-01  1.434137295045E-01
C18  4.976536165189E-01 -1.831540727541E-01 -1.434137295045E-01
C19 -4.514060981961E-01  2.976266076689E-01  2.195489734759E-01
C20  4.514060981961E-01 -2.976266076689E-01 -2.195489734759E-01
C21  2.472770923108E-01 -2.980206609047E-02  5.304358807511E-02
C22 -2.472770923108E-01  2.980206609047E-02 -5.304358807511E-02
C23  3.959816662615E-01 -4.969059118115E-02 -7.816901511573E-03
C24 -3.959816662615E-01  4.969059118115E-02  7.816901511573E-03
C25 -3.493266490264E-01  1.639446552811E-01  8.314506033270E-02
C26  3.493266490264E-01 -1.639446552811E-01 -8.314506033270E-02
C27 -4.410407730530E-01 -1.161905699281E-01  3.031917777854E-01
C28  4.410407730530E-01  1.161905699281E-01 -3.031917777854E-01
C29 -3.988603667057E-01 -7.488900385171E-02  3.865497987873E-01
C30  3.988603667057E-01  7.488900385171E-02 -3.865497987873E-01
C31 -2.123983781262E-01 -1.238617642052E-01  4.249068766202E-01
C32  2.123983781262E-01  1.238617642052E-01 -4.249068766202E-01
C33 -7.202981814526E-02 -2.102448450887E-01  3.782699649315E-01
C34  7.202981814526E-02  2.102448450887E-01 -3.782699649315E-01
C35 -1.090534698184E-01 -2.567111005788E-01  2.901167500463E-01
C36  1.090534698184E-01  2.567111005788E-01 -2.901167500463E-01
C37 -2.995215443052E-01 -2.094756021971E-01  2.516641490384E-01
C38  2.995215443052E-01  2.094756021971E-01 -2.516641490384E-01
C39 -3.392942601718E-01 -2.528821925051E-01  1.668090594378E-01
C40  3.392942601718E-01  2.528821925051E-01 -1.668090594378E-01
C41 -1.979554080071E-01 -3.433862309200E-01  1.162634774570E-01
C42  1.979554080071E-01  3.433862309200E-01 -1.162634774570E-01
C43 -6.942436309967E-03 -3.904046874251E-01  1.547880210140E-01
C44  6.942436309967E-03  3.904046874251E-01 -1.547880210140E-01
C45  3.088698783019E-02 -3.453224905349E-01  2.416845703312E-01
C46 -3.088698783019E-02  3.453224905349E-01 -2.416845703312E-01
C47 -2.367699504531E-01 -3.870937703107E-01  3.061018894963E-02
C48  2.367699504531E-01  3.870937703107E-01 -3.061018894963E-02
C49 -9.560292336827E-02 -4.764764377770E-01 -1.928168502364E-02
C50  9.560292336827E-02  4.764764377770E-01  1.928168502364E-02
C51  1.338026381189E-01 -4.793313267242E-01  1.055189010257E-01
C52 -1.338026381189E-01  4.793313267242E-01 -1.055189010257E-01
H53 -1.123590694131E-01  1.583055355950E-01  3.153236042899E-01
H54  1.123590694131E-01 -1.583055355950E-01 -3.153236042899E-01
H55 -2.145538378255E-02  3.602321723039E-01  4.469254052084E-01
H56  2.145538378255E-02 -3.602321723039E-01 -4.469254052084E-01
H57  3.350885923585E-01 -4.636170508093E-01  4.729732554971E-01
H58 -3.350885923585E-01  4.636170508093E-01 -4.729732554971E-01
H59 -3.969341042332E-01 -4.918267648106E-01  3.681394368712E-01
H60  3.969341042332E-01  4.918267648106E-01 -3.681394368712E-01
H61 -1.137138264606E-02  2.727782464234E-02  1.779458846723E-01
H62  1.137138264606E-02 -2.727782464234E-02 -1.779458846723E-01
H63 -2.940694898519E-01  3.734851870848E-01  2.313307937304E-01
H64  2.940694898519E-01 -3.734851870848E-01 -2.313307937304E-01
H65  8.994903491279E-02 -1.057168300606E-01  4.139217413407E-02
H66 -8.994903491279E-02  1.057168300606E-01 -4.139217413407E-02
H67 -1.918702139548E-01  2.395996007253E-01  9.492166128412E-02
H68  1.918702139548E-01 -2.395996007253E-01 -9.492166128412E-02
H69  4.159249899068E-01 -7.797896175584E-02  2.739140531908E-01
H70 -4.159249899068E-01  7.797896175584E-02 -2.739140531908E-01
H71  4.926498213010E-01 -9.007581442111E-04  4.249350361321E-01
H72 -4.926498213010E-01  9.007581442112E-04 -4.249350361321E-01
H73 -1.821137252508E-01 -9.033723365474E-02  4.924785334483E-01
H74  1.821137252508E-01  9.033723365474E-02 -4.924785334483E-01
H75  7.328015385924E-02 -2.461294598244E-01  4.070445747109E-01
H76 -7.328015385924E-02  2.461294598244E-01 -4.070445747109E-01
H77 -4.837949145843E-01 -2.166353310259E-01  1.375549360477E-01
H78  4.837949145843E-01  2.166353310259E-01 -1.375549360477E-01
H79  1.750549189330E-01 -3.818442629175E-01  2.710464861789E-01
H80 -1.750549189330E-01  3.818442629175E-01 -2.710464861789E-01
H81 -3.813414872363E-01 -3.510049341903E-01  1.339464822909E-03
H82  3.813414872363E-01  3.510049341903E-01 -1.339464822909E-03
H83  2.783585485855E-01  4.846843511213E-01  1.348467556399E-01
H84 -2.783585485855E-01 -4.846843511213E-01 -1.348467556399E-01


#===END

data_OPT_STEP_44

_symmetry_space_group_name_H-M 'P 1'
_cell_length_a      6.44357641
_cell_length_b      7.81437053
_cell_length_c     16.52643273
_cell_angle_alpha   98.629242
_cell_angle_beta   92.384832
_cell_angle_gamma   96.016068

loop_
_atom_site_label
_atom_site_fract_x
_atom_site_fract_y
_atom_site_fract_z
C1  4.416099335281E-02  2.348842086604E-01  3.266787485929E-01
C2 -4.416099335281E-02 -2.348842086604E-01 -3.266787485929E-01
C3  9.444090320102E-02  3.463956778824E-01  3.990292685569E-01
C4 -9.444090320102E-02 -3.463956778824E-01 -3.990292685569E-01
C5  2.981944880364E-01  4.464032718110E-01  4.141293882828E-01
C6 -2.981944880364E-01 -4.464032718110E-01 -4.141293882828E-01
C7  4.463779821438E-01  4.311024919890E-01  3.565834654177E-01
C8 -4.463779821438E-01 -4.311024919890E-01 -3.565834654177E-01
C9  4.010485856294E-01  3.151464435049E-01  2.792403320699E-01
C10 -4.010485856294E-01 -3.151464435049E-01 -2.792403320699E-01
C11  1.939900820582E-01  2.152944426733E-01  2.637495383260E-01
C12 -1.939900820582E-01 -2.152944426733E-01 -2.637495383260E-01
C13  1.458017095902E-01  1.033017574435E-01  1.895104400882E-01
C14 -1.458017095902E-01 -1.033017574435E-01 -1.895104400882E-01
C15  2.945846401956E-01  8.362897972266E-02  1.278018848554E-01
C16 -2.945846401956E-01 -8.362897972266E-02 -1.278018848554E-01
C17 -4.976975273563E-01  1.831154030316E-01  1.434501067495E-01
C18  4.976975273563E-01 -1.831154030316E-01 -1.434501067495E-01
C19 -4.514812972385E-01  2.975829767963E-01  2.196136753699E-01
C20  4.514812972385E-01 -2.975829767963E-01 -2.196136753699E-01
C21  2.473054314797E-01 -2.989009853839E-02  5.299730986102E-02
C22 -2.473054314797E-01  2.989009853839E-02 -5.299730986102E-02
C23  3.960119550718E-01 -4.973529421909E-02 -7.839425217557E-03
C24 -3.960119550718E-01  4.973529421909E-02  7.839425217557E-03
C25 -3.493871502673E-01  1.639830173224E-01  8.319692930081E-02
C26  3.493871502673E-01 -1.639830173224E-01 -8.319692930081E-02
C27 -4.411475687504E-01 -1.163215097765E-01  3.031610343261E-01
C28  4.411475687504E-01  1.163215097765E-01 -3.031610343261E-01
C29 -3.989861129917E-01 -7.498573519672E-02  3.865375131727E-01
C30  3.989861129917E-01  7.498573519672E-02 -3.865375131727E-01
C31 -2.125160268415E-01 -1.238635042374E-01  4.249291280912E-01
C32  2.125160268415E-01  1.238635042374E-01 -4.249291280912E-01
C33 -7.218019350549E-02 -2.102715112000E-01  3.783135328599E-01
C34  7.218019350549E-02  2.102715112000E-01 -3.783135328599E-01
C35 -1.091854988560E-01 -2.567764318713E-01  2.901431014773E-01
C36  1.091854988560E-01  2.567764318713E-01 -2.901431014773E-01
C37 -2.996283788227E-01 -2.095872112689E-01  2.516515940938E-01
C38  2.996283788227E-01  2.095872112689E-01 -2.516515940938E-01
C39 -3.393363667959E-01 -2.529613135310E-01  1.667736341688E-01
C40  3.393363667959E-01  2.529613135310E-01 -1.667736341688E-01
C41 -1.979838311090E-01 -3.434269542291E-01  1.162453601465E-01
C42  1.979838311090E-01  3.434269542291E-01 -1.162453601465E-01
C43 -7.043917148356E-03 -3.904671814549E-01  1.548139776597E-01
C44  7.043917148356E-03  3.904671814549E-01 -1.548139776597E-01
C45  3.075443398139E-02 -3.453691171030E-01  2.417295592897E-01
C46 -3.075443398139E-02  3.453691171030E-01 -2.417295592897E-01
C47 -2.367522473758E-01 -3.871288748239E-01  3.057146465060E-02
C48  2.367522473758E-01  3.871288748239E-01 -3.057146465060E-02
C49 -9.557085360766E-02 -4.764722321951E-01 -1.930314022769E-02
C50  9.557085360766E-02  4.764722321951E-01  1.930314022769E-02
C51  1.337103780745E-01 -4.793615000426E-01  1.055624119936E-01
C52 -1.337103780745E-01  4.793615000426E-01 -1.055624119936E-01
H53 -1.123966896182E-01  1.581441954818E-01  3.152429438988E-01
H54  1.123966896182E-01 -1.581441954818E-01 -3.152429438988E-01
H55 -2.154553444390E-02  3.600942855870E-01  4.468907427475E-01
H56  2.154553444390E-02 -3.600942855870E-01 -4.468907427475E-01
H57  3.349468297072E-01 -4.636906360945E-01  4.730272047168E-01
H58 -3.349468297072E-01  4.636906360945E-01 -4.730272047168E-01
H59 -3.970862160395E-01 -4.918386865647E-01  3.682325889212E-01
H60  3.970862160395E-01  4.918386865647E-01 -3.682325889212E-01
H61 -1.138431429996E-02  2.716679939199E-02  1.778545186009E-01
H62  1.138431429996E-02 -2.716679939199E-02 -1.778545186009E-01
H63 -2.941558153486E-01  3.734541826721E-01  2.314386328457E-01
H64  2.941558153486E-01 -3.734541826721E-01 -2.314386328457E-01
H65  8.998658153730E-02 -1.058103518232E-01  4.130149808601E-02
H66 -8.998658153730E-02  1.058103518232E-01 -4.130149808601E-02
H67 -1.919584794707E-01  2.396739967483E-01  9.501040689755E-02
H68  1.919584794707E-01 -2.396739967483E-01 -9.501040689755E-02
H69  4.158221037128E-01 -7.816590751222E-02  2.738558854195E-01
H70 -4.158221037128E-01  7.816590751222E-02 -2.738558854195E-01
H71  4.925336215567E-01 -9.986111481959E-04  4.249063448841E-01
H72 -4.925336215567E-01  9.986111481960E-04 -4.249063448841E-01
H73 -1.821947362178E-01 -9.024797957423E-02  4.925088028929E-01
H74  1.821947362178E-01  9.024797957423E-02 -4.925088028929E-01
H75  7.311254418905E-02 -2.461130305346E-01  4.071202926054E-01
H76 -7.311254418905E-02  2.461130305346E-01 -4.071202926054E-01
H77 -4.837890954147E-01 -2.167054670430E-01  1.374877573087E-01
H78  4.837890954147E-01  2.167054670430E-01 -1.374877573087E-01
H79  1.749142523337E-01 -3.818363129224E-01  2.711189765378E-01
H80 -1.749142523337E-01  3.818363129224E-01 -2.711189765378E-01
H81 -3.813020564720E-01 -3.510711763608E-01  1.272596580076E-03
H82  3.813020564720E-01  3.510711763608E-01 -1.272596580076E-03
H83  2.782365998305E-01  4.846753939610E-01  1.349190489698E-01
H84 -2.782365998305E-01 -4.846753939610E-01 -1.349190489698E-01


#===END

data_OPT_STEP_45

_symmetry_space_group_name_H-M 'P 1'
_cell_length_a      6.44733398
_cell_length_b      7.81354871
_cell_length_c     16.51875959
_cell_angle_alpha   98.629975
_cell_angle_beta   92.424461
_cell_angle_gamma   96.042091

loop_
_atom_site_label
_atom_site_fract_x
_atom_site_fract_y
_atom_site_fract_z
C1  4.411186282197E-02  2.349655287143E-01  3.265959358053E-01
C2 -4.411186282197E-02 -2.349655287143E-01 -3.265959358053E-01
C3  9.433615188721E-02  3.465370122511E-01  3.989934124509E-01
C4 -9.433615188721E-02 -3.465370122511E-01 -3.989934124509E-01
C5  2.980325981243E-01  4.465767128715E-01  4.141921130003E-01
C6 -2.980325981243E-01 -4.465767128715E-01 -4.141921130003E-01
C7  4.462024144133E-01  4.312638413150E-01  3.566898885515E-01
C8 -4.462024144133E-01 -4.312638413150E-01 -3.566898885515E-01
C9  4.009129596510E-01  3.152796860207E-01  2.792942648262E-01
C10 -4.009129596510E-01 -3.152796860207E-01 -2.792942648262E-01
C11  1.939305492744E-01  2.153672485909E-01  2.637093187454E-01
C12 -1.939305492744E-01 -2.153672485909E-01 -2.637093187454E-01
C13  1.458576942316E-01  1.032192012663E-01  1.894466253225E-01
C14 -1.458576942316E-01 -1.032192012663E-01 -1.894466253225E-01
C15  2.946289546657E-01  8.354910374265E-02  1.277810348238E-01
C16 -2.946289546657E-01 -8.354910374265E-02 -1.277810348238E-01
C17 -4.977562710419E-01  1.831435717314E-01  1.435133871165E-01
C18  4.977562710419E-01 -1.831435717314E-01 -1.435133871165E-01
C19 -4.516216014057E-01  2.977053630640E-01  2.197129829114E-01
C20  4.516216014057E-01 -2.977053630640E-01 -2.197129829114E-01
C21  2.474005079714E-01 -3.000337291497E-02  5.292507642105E-02
C22 -2.474005079714E-01  3.000337291497E-02 -5.292507642105E-02
C23  3.960628191716E-01 -4.978699414257E-02 -7.882230818410E-03
C24 -3.960628191716E-01  4.978699414257E-02  7.882230818410E-03
C25 -3.495062902708E-01  1.641038570471E-01  8.328166296546E-02
C26  3.495062902708E-01 -1.641038570471E-01 -8.328166296546E-02
C27 -4.410170802996E-01 -1.161982122708E-01  3.030780492865E-01
C28  4.410170802996E-01  1.161982122708E-01 -3.030780492865E-01
C29 -3.989355717378E-01 -7.481090422023E-02  3.865098256186E-01
C30  3.989355717378E-01  7.481090422023E-02 -3.865098256186E-01
C31 -2.126376246451E-01 -1.236675011041E-01  4.250044679720E-01
C32  2.126376246451E-01  1.236675011041E-01 -4.250044679720E-01
C33 -7.242837920280E-02 -2.101531126459E-01  3.784383088157E-01
C34  7.242837920280E-02  2.101531126459E-01 -3.784383088157E-01
C35 -1.093209092458E-01 -2.566640760341E-01  2.902117541560E-01
C36  1.093209092458E-01  2.566640760341E-01 -2.902117541560E-01
C37 -2.995929028285E-01 -2.095045045475E-01  2.516142175417E-01
C38  2.995929028285E-01  2.095045045475E-01 -2.516142175417E-01
C39 -3.392704381289E-01 -2.530054097386E-01  1.666868611160E-01
C40  3.392704381289E-01  2.530054097386E-01 -1.666868611160E-01
C41 -1.979589186326E-01 -3.434421393344E-01  1.162018619589E-01
C42  1.979589186326E-01  3.434421393344E-01 -1.162018619589E-01
C43 -7.169976699399E-03 -3.904203907427E-01  1.548764970983E-01
C44  7.169976699399E-03  3.904203907427E-01 -1.548764970983E-01
C45  3.057630864796E-02 -3.452247830986E-01  2.418424262817E-01
C46 -3.057630864796E-02  3.452247830986E-01 -2.418424262817E-01
C47 -2.366504219954E-01 -3.872097947314E-01  3.047469293870E-02
C48  2.366504219954E-01  3.872097947314E-01 -3.047469293870E-02
C49 -9.550483942675E-02 -4.765178893968E-01 -1.935560114089E-02
C50  9.550483942675E-02  4.765178893968E-01  1.935560114089E-02
C51  1.335344650600E-01 -4.792978713195E-01  1.056708920309E-01
C52 -1.335344650600E-01  4.792978713195E-01 -1.056708920309E-01
H53 -1.123912004736E-01  1.581822589736E-01  3.150940738806E-01
H54  1.123912004736E-01 -1.581822589736E-01 -3.150940738806E-01
H55 -2.161126872887E-02  3.601856012364E-01  4.468353202762E-01
H56  2.161126872887E-02 -3.601856012364E-01 -4.468353202762E-01
H57  3.347553505899E-01 -4.634882618403E-01  4.731295385661E-01
H58 -3.347553505899E-01  4.634882618403E-01 -4.731295385661E-01
H59 -3.972877622437E-01 -4.916905753904E-01  3.684148715046E-01
H60  3.972877622437E-01  4.916905753904E-01 -3.684148715046E-01
H61 -1.126170879640E-02  2.701801651430E-02  1.777271679329E-01
H62  1.126170879640E-02 -2.701801651430E-02 -1.777271679329E-01
H63 -2.944467738050E-01  3.737931792605E-01  2.315653303465E-01
H64  2.944467738050E-01 -3.737931792605E-01 -2.315653303465E-01
H65  9.015524862798E-02 -1.059997658721E-01  4.116786136361E-02
H66 -9.015524862798E-02  1.059997658721E-01 -4.116786136361E-02
H67 -1.921828061248E-01  2.399253983222E-01  9.514301636376E-02
H68  1.921828061248E-01 -2.399253983222E-01 -9.514301636376E-02
H69  4.160087239122E-01 -7.816226948919E-02  2.737022500860E-01
H70 -4.160087239122E-01  7.816226948919E-02 -2.737022500860E-01
H71  4.926005239540E-01 -8.744499105817E-04  4.248452565357E-01
H72 -4.926005239540E-01  8.744499105817E-04 -4.248452565357E-01
H73 -1.822665780610E-01 -8.987417426388E-02  4.926138391881E-01
H74  1.822665780610E-01  8.987417426388E-02 -4.926138391881E-01
H75  7.278513058847E-02 -2.459074290057E-01  4.073206846734E-01
H76 -7.278513058847E-02  2.459074290057E-01 -4.073206846734E-01
H77 -4.836358765254E-01 -2.168280326069E-01  1.373263549541E-01
H78  4.836358765254E-01  2.168280326069E-01 -1.373263549541E-01
H79  1.746677607954E-01 -3.815812368601E-01  2.713051008095E-01
H80 -1.746677607954E-01  3.815812368601E-01 -2.713051008095E-01
H81 -3.810594419966E-01 -3.511525086554E-01  1.095929232687E-03
H82  3.810594419966E-01  3.511525086554E-01 -1.095929232687E-03
H83  2.779192411013E-01  4.847422673839E-01  1.351074260904E-01
H84 -2.779192411013E-01 -4.847422673839E-01 -1.351074260904E-01


#===END

data_OPT_STEP_46

_symmetry_space_group_name_H-M 'P 1'
_cell_length_a      6.44797122
_cell_length_b      7.81787610
_cell_length_c     16.51190781
_cell_angle_alpha   98.631225
_cell_angle_beta   92.455286
_cell_angle_gamma   96.059336

loop_
_atom_site_label
_atom_site_fract_x
_atom_site_fract_y
_atom_site_fract_z
C1  4.391326980238E-02  2.347944901711E-01  3.265665696764E-01
C2 -4.391326980238E-02 -2.347944901711E-01 -3.265665696764E-01
C3  9.406908210505E-02  3.463943823851E-01  3.989935160039E-01
C4 -9.406908210505E-02 -3.463943823851E-01 -3.989935160039E-01
C5  2.977236974438E-01  4.465173039770E-01  4.142463941595E-01
C6 -2.977236974438E-01 -4.465173039770E-01 -4.142463941595E-01
C7  4.459007065371E-01  4.312803174037E-01  3.567586218858E-01
C8 -4.459007065371E-01 -4.312803174037E-01 -3.567586218858E-01
C9  4.007159462700E-01  3.152078580428E-01  2.793479784723E-01
C10 -4.007159462700E-01 -3.152078580428E-01 -2.793479784723E-01
C11  1.937622518452E-01  2.152447862909E-01  2.637023117222E-01
C12 -1.937622518452E-01 -2.152447862909E-01 -2.637023117222E-01
C13  1.457643545168E-01  1.030640858067E-01  1.894120720980E-01
C14 -1.457643545168E-01 -1.030640858067E-01 -1.894120720980E-01
C15  2.945837324014E-01  8.341129043849E-02  1.277772554236E-01
C16 -2.945837324014E-01 -8.341129043849E-02 -1.277772554236E-01
C17 -4.978425687144E-01  1.830811197463E-01  1.435642584353E-01
C18  4.978425687144E-01 -1.830811197463E-01 -1.435642584353E-01
C19 -4.517544986370E-01  2.976186585509E-01  2.198053057579E-01
C20  4.517544986370E-01 -2.976186585509E-01 -2.198053057579E-01
C21  2.474049519634E-01 -3.012114864702E-02  5.288136544554E-02
C22 -2.474049519634E-01  3.012114864702E-02 -5.288136544554E-02
C23  3.960842987909E-01 -4.982497569379E-02 -7.909584615987E-03
C24 -3.960842987909E-01  4.982497569379E-02  7.909584615987E-03
C25 -3.495786746142E-01  1.641234242784E-01  8.334793349321E-02
C26  3.495786746142E-01 -1.641234242784E-01 -8.334793349321E-02
C27 -4.412052412613E-01 -1.163944109940E-01  3.029956799865E-01
C28  4.412052412613E-01  1.163944109940E-01 -3.029956799865E-01
C29 -3.991298172093E-01 -7.487187209950E-02  3.864667338843E-01
C30  3.991298172093E-01  7.487187209950E-02 -3.864667338843E-01
C31 -2.128625856805E-01 -1.236080813173E-01  4.250522136539E-01
C32  2.128625856805E-01  1.236080813173E-01 -4.250522136539E-01
C33 -7.265881916360E-02 -2.100813383396E-01  3.785345139108E-01
C34  7.265881916360E-02  2.100813383396E-01 -3.785345139108E-01
C35 -1.095191255681E-01 -2.566938859571E-01  2.902674088806E-01
C36  1.095191255681E-01  2.566938859571E-01 -2.902674088806E-01
C37 -2.997496175014E-01 -2.096343543440E-01  2.515766827320E-01
C38  2.997496175014E-01  2.096343543440E-01 -2.515766827320E-01
C39 -3.393381961954E-01 -2.531305328737E-01  1.666020039759E-01
C40  3.393381961954E-01  2.531305328737E-01 -1.666020039759E-01
C41 -1.980080296318E-01 -3.435110040211E-01  1.161595975103E-01
C42  1.980080296318E-01  3.435110040211E-01 -1.161595975103E-01
C43 -7.294336297812E-03 -3.904388152406E-01  1.549296317811E-01
C44  7.294336297812E-03  3.904388152406E-01 -1.549296317811E-01
C45  3.035412171947E-02 -3.452647645527E-01  2.419449876402E-01
C46 -3.035412171947E-02  3.452647645528E-01 -2.419449876402E-01
C47 -2.366349488013E-01 -3.873016110135E-01  3.038680646853E-02
C48  2.366349488013E-01  3.873016110135E-01 -3.038680646853E-02
C49 -9.546497092661E-02 -4.765402765903E-01 -1.940330934462E-02
C50  9.546497092661E-02  4.765402765903E-01  1.940330934462E-02
C51  1.333953885105E-01 -4.793060300755E-01  1.057680189136E-01
C52 -1.333953885105E-01  4.793060300755E-01 -1.057680189136E-01
H53 -1.125245649072E-01  1.578841147365E-01  3.150307832340E-01
H54  1.125245649072E-01 -1.578841147365E-01 -3.150307832340E-01
H55 -2.189513327469E-02  3.599833610630E-01  4.468191972164E-01
H56  2.189513327469E-02 -3.599833610630E-01 -4.468191972164E-01
H57  3.343566898105E-01 -4.634722423324E-01  4.732001848443E-01
H58 -3.343566898105E-01  4.634722423324E-01 -4.732001848443E-01
H59 -3.976600778198E-01 -4.915469638368E-01  3.685141192834E-01
H60  3.976600778198E-01  4.915469638368E-01 -3.685141192834E-01
H61 -1.133729744856E-02  2.682926252182E-02  1.776358057675E-01
H62  1.133729744856E-02 -2.682926252182E-02 -1.776358057675E-01
H63 -2.945862464696E-01  3.737208042318E-01  2.317206784099E-01
H64  2.945862464696E-01 -3.737208042318E-01 -2.317206784099E-01
H65  9.017087843213E-02 -1.061375224706E-01  4.106325980930E-02
H66 -9.017087843213E-02  1.061375224706E-01 -4.106325980930E-02
H67 -1.922829127044E-01  2.399904085845E-01  9.526361876093E-02
H68  1.922829127044E-01 -2.399904085845E-01 -9.526361876093E-02
H69  4.158068478457E-01 -7.851795972416E-02  2.735502538985E-01
H70 -4.158068478457E-01  7.851795972416E-02 -2.735502538985E-01
H71  4.923917365202E-01 -9.844857756751E-04  4.247693071667E-01
H72 -4.923917365202E-01  9.844857756752E-04 -4.247693071667E-01
H73 -1.825183807030E-01 -8.975983112715E-02  4.926979196341E-01
H74  1.825183807030E-01  8.975983112715E-02 -4.926979196341E-01
H75  7.245737805946E-02 -2.458104441499E-01  4.075137655031E-01
H76 -7.245737805946E-02  2.458104441499E-01 -4.075137655031E-01
H77 -4.836238440175E-01 -2.169682316388E-01  1.371648750892E-01
H78  4.836238440175E-01  2.169682316388E-01 -1.371648750892E-01
H79  1.743544394222E-01 -3.816193864154E-01  2.714862841249E-01
H80 -1.743544394222E-01  3.816193864154E-01 -2.714862841249E-01
H81 -3.809827846338E-01 -3.512847389602E-01  9.350621764573E-04
H82  3.809827846338E-01  3.512847389602E-01 -9.350621764573E-04
H83  2.776763255734E-01  4.847145182150E-01  1.352820166037E-01
H84 -2.776763255734E-01 -4.847145182150E-01 -1.352820166037E-01


#===END

data_OPT_STEP_47

_symmetry_space_group_name_H-M 'P 1'
_cell_length_a      6.45713932
_cell_length_b      7.81284195
_cell_length_c     16.50255421
_cell_angle_alpha   98.659882
_cell_angle_beta   92.537126
_cell_angle_gamma   96.083508

loop_
_atom_site_label
_atom_site_fract_x
_atom_site_fract_y
_atom_site_fract_z
C1  4.416280050089E-02  2.346956627727E-01  3.264587486825E-01
C2 -4.416280050089E-02 -2.346956627727E-01 -3.264587486825E-01
C3  9.411129853010E-02  3.465651357044E-01  3.989494177107E-01
C4 -9.411129853010E-02 -3.465651357044E-01 -3.989494177107E-01
C5  2.974247794041E-01  4.470112811382E-01  4.143535403644E-01
C6 -2.974247794041E-01 -4.470112811382E-01 -4.143535403644E-01
C7  4.455408487002E-01  4.316941198281E-01  3.569707764464E-01
C8 -4.455408487002E-01 -4.316941198281E-01 -3.569707764464E-01
C9  4.004847887032E-01  3.154932772042E-01  2.794658724195E-01
C10 -4.004847887032E-01 -3.154932772042E-01 -2.794658724195E-01
C11  1.938613525633E-01  2.152337887215E-01  2.636592238139E-01
C12 -1.938613525633E-01 -2.152337887215E-01 -2.636592238139E-01
C13  1.459377805023E-01  1.030393408795E-01  1.892435470687E-01
C14 -1.459377805023E-01 -1.030393408795E-01 -1.892435470687E-01
C15  2.946137036654E-01  8.349144429824E-02  1.276732638858E-01
C16 -2.946137036654E-01 -8.349144429824E-02 -1.276732638858E-01
C17 -4.981125948938E-01  1.834140531019E-01  1.436363229151E-01
C18  4.981125948938E-01 -1.834140531019E-01 -1.436363229151E-01
C19 -4.521430905722E-01  2.980377360592E-01  2.199844390808E-01
C20  4.521430905722E-01 -2.980377360592E-01 -2.199844390808E-01
C21  2.476132406644E-01 -3.022474286547E-02  5.269101156003E-02
C22 -2.476132406644E-01  3.022474286547E-02 -5.269101156003E-02
C23  3.962331316248E-01 -4.995235851312E-02 -7.998149632885E-03
C24 -3.962331316248E-01  4.995235851312E-02  7.998149632885E-03
C25 -3.498745478174E-01  1.643702060373E-01  8.353736360042E-02
C26  3.498745478174E-01 -1.643702060373E-01 -8.353736360042E-02
C27 -4.410672886948E-01 -1.164491683769E-01  3.028837979611E-01
C28  4.410672886948E-01  1.164491683769E-01 -3.028837979611E-01
C29 -3.991597758984E-01 -7.486401920394E-02  3.864431015159E-01
C30  3.991597758984E-01  7.486401920394E-02 -3.864431015159E-01
C31 -2.131569129285E-01 -1.234874191428E-01  4.251886953657E-01
C32  2.131569129285E-01  1.234874191428E-01 -4.251886953657E-01
C33 -7.310816545264E-02 -2.099953032867E-01  3.787433034894E-01
C34  7.310816545264E-02  2.099953032867E-01 -3.787433034894E-01
C35 -1.097335140885E-01 -2.565659306377E-01  2.903822846114E-01
C36  1.097335140885E-01  2.565659306377E-01 -2.903822846114E-01
C37 -2.997491282598E-01 -2.096999052571E-01  2.515352673644E-01
C38  2.997491282598E-01  2.096999052571E-01 -2.515352673644E-01
C39 -3.391672500592E-01 -2.532337068882E-01  1.664722263382E-01
C40  3.391672500592E-01  2.532337068882E-01 -1.664722263382E-01
C41 -1.979351777746E-01 -3.435646514009E-01  1.160968710488E-01
C42  1.979351777746E-01  3.435646514009E-01 -1.160968710488E-01
C43 -7.460990648124E-03 -3.903344789545E-01  1.550267505798E-01
C44  7.460990648124E-03  3.903344789545E-01 -1.550267505798E-01
C45  3.009200511945E-02 -3.450133954462E-01  2.421223243386E-01
C46 -3.009200511945E-02  3.450133954462E-01 -2.421223243386E-01
C47 -2.364010919126E-01 -3.874045121480E-01  3.023715783387E-02
C48  2.364010919126E-01  3.874045121480E-01 -3.023715783387E-02
C49 -9.531774773514E-02 -4.765779004667E-01 -1.948623820412E-02
C50  9.531774773514E-02  4.765779004667E-01  1.948623820412E-02
C51  1.332370163594E-01 -4.790017700693E-01  1.059225740804E-01
C52 -1.332370163594E-01  4.790017700693E-01 -1.059225740804E-01
H53 -1.120207024861E-01  1.575478137970E-01  3.148167320482E-01
H54  1.120207024861E-01 -1.575478137970E-01 -3.148167320482E-01
H55 -2.178704894124E-02  3.601474909777E-01  4.467053239572E-01
H56  2.178704894124E-02 -3.601474909777E-01 -4.467053239572E-01
H57  3.340003852089E-01 -4.629647444143E-01  4.733986352109E-01
H58 -3.340003852089E-01  4.629647444143E-01 -4.733986352109E-01
H59 -3.981855181244E-01 -4.910552188882E-01  3.688673800454E-01
H60  3.981855181244E-01  4.910552188882E-01 -3.688673800454E-01
H61 -1.094519723159E-02  2.663099613721E-02  1.773403116967E-01
H62  1.094519723159E-02 -2.663099613721E-02 -1.773403116967E-01
H63 -2.950529780036E-01  3.740627451227E-01  2.320912555625E-01
H64  2.950529780036E-01 -3.740627451227E-01 -2.320912555625E-01
H65  9.055906722331E-02 -1.063411558805E-01  4.072244226509E-02
H66 -9.055906722331E-02  1.063411558805E-01 -4.072244226509E-02
H67 -1.927025999788E-01  2.402375483362E-01  9.562905976855E-02
H68  1.927025999788E-01 -2.402375483362E-01 -9.562905976855E-02
H69  4.162876069731E-01 -7.845387086334E-02  2.733013425083E-01
H70 -4.162876069731E-01  7.845387086334E-02 -2.733013425083E-01
H71  4.925200898400E-01 -8.719459150108E-04  4.246752105813E-01
H72 -4.925200898400E-01  8.719459150108E-04 -4.246752105813E-01
H73 -1.829780781836E-01 -8.968592909281E-02  4.929060946807E-01
H74  1.829780781836E-01  8.968592909281E-02 -4.929060946807E-01
H75  7.172036739156E-02 -2.457593905092E-01  4.078587976774E-01
H76 -7.172036739156E-02  2.457593905092E-01 -4.078587976774E-01
H77 -4.833038521160E-01 -2.172396963311E-01  1.369180918756E-01
H78  4.833038521160E-01  2.172396963311E-01 -1.369180918756E-01
H79  1.739526370696E-01 -3.811862183118E-01  2.717801924250E-01
H80 -1.739526370696E-01  3.811862183118E-01 -2.717801924250E-01
H81 -3.806937549369E-01 -3.516924622047E-01  6.772632477906E-04
H82  3.806937549369E-01  3.516924622047E-01 -6.772632477906E-04
H83  2.775163349859E-01  4.853969948271E-01  1.355392183706E-01
H84 -2.775163349859E-01 -4.853969948271E-01 -1.355392183706E-01


#===END

data_OPT_STEP_48

_symmetry_space_group_name_H-M 'P 1'
_cell_length_a      6.45754068
_cell_length_b      7.81207476
_cell_length_c     16.50320354
_cell_angle_alpha   98.678386
_cell_angle_beta   92.555259
_cell_angle_gamma   96.086190

loop_
_atom_site_label
_atom_site_fract_x
_atom_site_fract_y
_atom_site_fract_z
C1  4.409639547363E-02  2.344829644292E-01  3.264206307823E-01
C2 -4.409639547363E-02 -2.344829644292E-01 -3.264206307823E-01
C3  9.403603426816E-02  3.463164888371E-01  3.989444768415E-01
C4 -9.403603426816E-02 -3.463164888371E-01 -3.989444768415E-01
C5  2.973124000052E-01  4.468382412794E-01  4.143934334953E-01
C6 -2.973124000052E-01 -4.468382412794E-01 -4.143934334953E-01
C7  4.454000532524E-01  4.316336339235E-01  3.570205499089E-01
C8 -4.454000532524E-01 -4.316336339235E-01 -3.570205499089E-01
C9  4.004316662860E-01  3.153272779636E-01  2.795166538741E-01
C10 -4.004316662860E-01 -3.153272779636E-01 -2.795166538741E-01
C11  1.938056098320E-01  2.150643380311E-01  2.636458210229E-01
C12 -1.938056098320E-01 -2.150643380311E-01 -2.636458210229E-01
C13  1.459341640619E-01  1.028357914893E-01  1.892122270812E-01
C14 -1.459341640619E-01 -1.028357914893E-01 -1.892122270812E-01
C15  2.946223144270E-01  8.333814054200E-02  1.276664263511E-01
C16 -2.946223144270E-01 -8.333814054200E-02 -1.276664263511E-01
C17 -4.981225325018E-01  1.833007258530E-01  1.436874307146E-01
C18  4.981225325018E-01 -1.833007258530E-01 -1.436874307146E-01
C19 -4.522392759356E-01  2.980168204311E-01  2.200378423858E-01
C20  4.522392759356E-01 -2.980168204311E-01 -2.200378423858E-01
C21  2.476325394343E-01 -3.033237190812E-02  5.264649535446E-02
C22 -2.476325394343E-01  3.033237190812E-02 -5.264649535446E-02
C23  3.962402902401E-01 -4.996764812815E-02 -8.028707747646E-03
C24 -3.962402902401E-01  4.996764812815E-02  8.028707747646E-03
C25 -3.499255178110E-01  1.644038066011E-01  8.359009390603E-02
C26  3.499255178110E-01 -1.644038066011E-01 -8.359009390603E-02
C27 -4.410628301366E-01 -1.164433732417E-01  3.028736879719E-01
C28  4.410628301366E-01  1.164433732417E-01 -3.028736879719E-01
C29 -3.991312773105E-01 -7.480304794913E-02  3.864390638618E-01
C30  3.991312773105E-01  7.480304794913E-02 -3.864390638618E-01
C31 -2.131880706750E-01 -1.234882320450E-01  4.252072308787E-01
C32  2.131880706750E-01  1.234882320450E-01 -4.252072308787E-01
C33 -7.310798140734E-02 -2.099459525792E-01  3.787654273304E-01
C34  7.310798140734E-02  2.099459525792E-01 -3.787654273304E-01
C35 -1.097784662032E-01 -2.566072010910E-01  2.904004018817E-01
C36  1.097784662032E-01  2.566072010910E-01 -2.904004018817E-01
C37 -2.997476371755E-01 -2.096936965022E-01  2.515323159943E-01
C38  2.997476371755E-01  2.096936965022E-01 -2.515323159943E-01
C39 -3.391503216538E-01 -2.532215129832E-01  1.664594192885E-01
C40  3.391503216538E-01  2.532215129832E-01 -1.664594192885E-01
C41 -1.979057144818E-01 -3.435267311160E-01  1.160894086359E-01
C42  1.979057144818E-01  3.435267311160E-01 -1.160894086359E-01
C43 -7.458322155547E-03 -3.903153122818E-01  1.550377872783E-01
C44  7.458322155547E-03  3.903153122818E-01 -1.550377872783E-01
C45  3.003718269592E-02 -3.450646928291E-01  2.421478608381E-01
C46 -3.003718269592E-02  3.450646928291E-01 -2.421478608381E-01
C47 -2.363936231179E-01 -3.874113745114E-01  3.022322659435E-02
C48  2.363936231179E-01  3.874113745114E-01 -3.022322659435E-02
C49 -9.534630603802E-02 -4.766289528715E-01 -1.949123991227E-02
C50  9.534630603802E-02  4.766289528715E-01  1.949123991227E-02
C51  1.331879549244E-01 -4.790495511738E-01  1.059441484832E-01
C52 -1.331879549244E-01  4.790495511738E-01 -1.059441484832E-01
H53 -1.121132012561E-01  1.573741983823E-01  3.147265629013E-01
H54  1.121132012561E-01 -1.573741983823E-01 -3.147265629013E-01
H55 -2.190020728925E-02  3.599290205524E-01  4.466694030536E-01
H56  2.190020728925E-02 -3.599290205524E-01 -4.466694030536E-01
H57  3.338554742935E-01 -4.630945910297E-01  4.734468153194E-01
H58 -3.338554742935E-01  4.630945910297E-01 -4.734468153194E-01
H59 -3.984408651934E-01 -4.908972551314E-01  3.689112109111E-01
H60  3.984408651934E-01  4.908972551314E-01 -3.689112109111E-01
H61 -1.092304896178E-02  2.637199478874E-02  1.772760925035E-01
H62  1.092304896178E-02 -2.637199478874E-02 -1.772760925035E-01
H63 -2.952793993317E-01  3.742862592402E-01  2.321332230238E-01
H64  2.952793993317E-01 -3.742862592402E-01 -2.321332230238E-01
H65  9.064065077304E-02 -1.065719924166E-01  4.066089298489E-02
H66 -9.064065077304E-02  1.065719924166E-01 -4.066089298489E-02
H67 -1.928458256499E-01  2.404470506979E-01  9.568657737190E-02
H68  1.928458256499E-01 -2.404470506979E-01 -9.568657737190E-02
H69  4.162381456920E-01 -7.854984654871E-02  2.732838878864E-01
H70 -4.162381456920E-01  7.854984654871E-02 -2.732838878864E-01
H71  4.925614059661E-01 -7.795898552840E-04  4.246576234999E-01
H72 -4.925614059661E-01  7.795898552840E-04 -4.246576234999E-01
H73 -1.830634150157E-01 -8.975988456640E-02  4.929367087646E-01
H74  1.830634150157E-01  8.975988456640E-02 -4.929367087646E-01
H75  7.169621706827E-02 -2.457171440371E-01  4.079001535918E-01
H76 -7.169621706827E-02  2.457171440371E-01 -4.079001535918E-01
H77 -4.832409520412E-01 -2.171812165983E-01  1.368877418491E-01
H78  4.832409520412E-01  2.171812165983E-01 -1.368877418491E-01
H79  1.738580908644E-01 -3.812736205737E-01  2.718228460764E-01
H80 -1.738580908644E-01  3.812736205737E-01 -2.718228460764E-01
H81 -3.806157100839E-01 -3.516169175995E-01  6.441770651419E-04
H82  3.806157100839E-01  3.516169175995E-01 -6.441770651419E-04
H83  2.773866160144E-01  4.852531683098E-01  1.355815460012E-01
H84 -2.773866160144E-01 -4.852531683098E-01 -1.355815460012E-01


#===END

data_OPT_STEP_49

_symmetry_space_group_name_H-M 'P 1'
_cell_length_a      6.45710722
_cell_length_b      7.81329362
_cell_length_c     16.50047730
_cell_angle_alpha   98.651513
_cell_angle_beta   92.544671
_cell_angle_gamma   96.094245

loop_
_atom_site_label
_atom_site_fract_x
_atom_site_fract_y
_atom_site_fract_z
C1  4.406316864346E-02  2.346116810080E-01  3.264118218292E-01
C2 -4.406316864346E-02 -2.346116810080E-01 -3.264118218292E-01
C3  9.403872218170E-02  3.463874962487E-01  3.989239813495E-01
C4 -9.403872218170E-02 -3.463874962487E-01 -3.989239813495E-01
C5  2.974180421809E-01  4.467370822892E-01  4.143687148956E-01
C6 -2.974180421809E-01 -4.467370822892E-01 -4.143687148956E-01
C7  4.454642703313E-01  4.316201149479E-01  3.569608790804E-01
C8 -4.454642703313E-01 -4.316201149479E-01 -3.569608790804E-01
C9  4.004332818907E-01  3.154211744036E-01  2.794567044445E-01
C10 -4.004332818907E-01 -3.154211744036E-01 -2.794567044445E-01
C11  1.937994521021E-01  2.151517026533E-01  2.636326291567E-01
C12 -1.937994521021E-01 -2.151517026533E-01 -2.636326291567E-01
C13  1.459386051238E-01  1.028789515961E-01  1.892350637952E-01
C14 -1.459386051238E-01 -1.028789515961E-01 -1.892350637952E-01
C15  2.946178798554E-01  8.339400503832E-02  1.276699774120E-01
C16 -2.946178798554E-01 -8.339400503832E-02 -1.276699774120E-01
C17 -4.980830635294E-01  1.832975468339E-01  1.436576066511E-01
C18  4.980830635294E-01 -1.832975468339E-01 -1.436576066511E-01
C19 -4.521565735024E-01  2.979689582493E-01  2.199948167591E-01
C20  4.521565735024E-01 -2.979689582493E-01 -2.199948167591E-01
C21  2.476147336593E-01 -3.029049489162E-02  5.267961189047E-02
C22 -2.476147336593E-01  3.029049489162E-02 -5.267961189047E-02
C23  3.962163467210E-01 -4.993411248384E-02 -8.012464357546E-03
C24 -3.962163467210E-01  4.993411248384E-02  8.012464357546E-03
C25 -3.498782454505E-01  1.643671628992E-01  8.354935230943E-02
C26  3.498782454505E-01 -1.643671628992E-01 -8.354935230943E-02
C27 -4.410992555886E-01 -1.163717469914E-01  3.028367347356E-01
C28  4.410992555886E-01  1.163717469914E-01 -3.028367347356E-01
C29 -3.991650861578E-01 -7.471499040356E-02  3.864047425411E-01
C30  3.991650861578E-01  7.471499040356E-02 -3.864047425411E-01
C31 -2.132135903866E-01 -1.233727156020E-01  4.251820546087E-01
C32  2.132135903866E-01  1.233727156020E-01 -4.251820546087E-01
C33 -7.315496588674E-02 -2.098571644472E-01  3.787516603439E-01
C34  7.315496588674E-02  2.098571644472E-01 -3.787516603439E-01
C35 -1.098449835522E-01 -2.565652147256E-01  2.903880454960E-01
C36  1.098449835522E-01  2.565652147256E-01 -2.903880454960E-01
C37 -2.997855957237E-01 -2.096315915071E-01  2.515030436447E-01
C38  2.997855957237E-01  2.096315915071E-01 -2.515030436447E-01
C39 -3.391831004152E-01 -2.531869976985E-01  1.664275413816E-01
C40  3.391831004152E-01  2.531869976985E-01 -1.664275413816E-01
C41 -1.979670907545E-01 -3.435535777868E-01  1.160734536706E-01
C42  1.979670907545E-01  3.435535777868E-01 -1.160734536706E-01
C43 -7.495236428087E-03 -3.902807186894E-01  1.550352054103E-01
C44  7.495236428087E-03  3.902807186894E-01 -1.550352054103E-01
C45  2.996237713919E-02 -3.450453945521E-01  2.421492163669E-01
C46 -2.996237713919E-02  3.450453945521E-01 -2.421492163669E-01
C47 -2.364264357245E-01 -3.874504572332E-01  3.020313333657E-02
C48  2.364264357245E-01  3.874504572332E-01 -3.020313333657E-02
C49 -9.535449193696E-02 -4.766557588099E-01 -1.949879173559E-02
C50  9.535449193696E-02  4.766557588100E-01  1.949879173559E-02
C51  1.331584093480E-01 -4.790222719939E-01  1.059561689707E-01
C52 -1.331584093480E-01  4.790222719939E-01 -1.059561689707E-01
H53 -1.122255988070E-01  1.576394983785E-01  3.147113187376E-01
H54  1.122255988070E-01 -1.576394983785E-01 -3.147113187376E-01
H55 -2.191165030463E-02  3.600029035489E-01  4.466573815628E-01
H56  2.191165030463E-02 -3.600029035489E-01 -4.466573815628E-01
H57  3.339318113324E-01 -4.631210008319E-01  4.733899669185E-01
H58 -3.339318113324E-01  4.631210008319E-01 -4.733899669185E-01
H59 -3.983441288880E-01 -4.909532577461E-01  3.688358215784E-01
H60  3.983441288880E-01  4.909532577461E-01 -3.688358215784E-01
H61 -1.095374839910E-02  2.647496287409E-02  1.773122162676E-01
H62  1.095374839910E-02 -2.647496287409E-02 -1.773122162676E-01
H63 -2.951940212152E-01  3.742372524587E-01  2.320599982312E-01
H64  2.951940212152E-01 -3.742372524587E-01 -2.320599982312E-01
H65  9.060249800280E-02 -1.065056411355E-01  4.071743285253E-02
H66 -9.060249800280E-02  1.065056411355E-01 -4.071743285253E-02
H67 -1.927711952806E-01  2.403774423611E-01  9.562414861839E-02
H68  1.927711952806E-01 -2.403774423611E-01 -9.562414861839E-02
H69  4.161507188053E-01 -7.856171159206E-02  2.732466457292E-01
H70 -4.161507188053E-01  7.856171159206E-02 -2.732466457292E-01
H71  4.924964564962E-01 -7.349999698713E-04  4.246217948475E-01
H72 -4.924964564962E-01  7.349999698713E-04 -4.246217948475E-01
H73 -1.829968704320E-01 -8.950697608297E-02  4.929053811063E-01
H74  1.829968704320E-01  8.950697608297E-02 -4.929053811063E-01
H75  7.166339640741E-02 -2.455976724561E-01  4.078883374641E-01
H76 -7.166339640741E-02  2.455976724561E-01 -4.078883374641E-01
H77 -4.832445565006E-01 -2.171230862387E-01  1.368437998393E-01
H78  4.832445565006E-01  2.171230862387E-01 -1.368437998393E-01
H79  1.737918573552E-01 -3.812304321887E-01  2.718328994200E-01
H80 -1.737918573552E-01  3.812304321887E-01 -2.718328994200E-01
H81 -3.805855674984E-01 -3.515830637123E-01  6.058169161484E-04
H82  3.805855674984E-01  3.515830637123E-01 -6.058169161484E-04
H83  2.773261558697E-01  4.852546962581E-01  1.356090266734E-01
H84 -2.773261558697E-01 -4.852546962581E-01 -1.356090266734E-01


#===END

data_OPT_STEP_50

_symmetry_space_group_name_H-M 'P 1'
_cell_length_a      6.45468410
_cell_length_b      7.81500705
_cell_length_c     16.50121593
_cell_angle_alpha   98.648602
_cell_angle_beta   92.524742
_cell_angle_gamma   96.087466

loop_
_atom_site_label
_atom_site_fract_x
_atom_site_fract_y
_atom_site_fract_z
C1  4.394540385029E-02  2.345919700912E-01  3.264752198948E-01
C2 -4.394540385029E-02 -2.345919700912E-01 -3.264752198948E-01
C3  9.393279922358E-02  3.463507850509E-01  3.989708640661E-01
C4 -9.393279922358E-02 -3.463507850509E-01 -3.989708640661E-01
C5  2.973456833259E-01  4.467246697443E-01  4.143662736396E-01
C6 -2.973456833259E-01 -4.467246697443E-01 -4.143662736396E-01
C7  4.454443315963E-01  4.315770357817E-01  3.569405816931E-01
C8 -4.454443315963E-01 -4.315770357817E-01 -3.569405816931E-01
C9  4.004373791752E-01  3.153262433374E-01  2.794667609677E-01
C10 -4.004373791752E-01 -3.153262433374E-01 -2.794667609677E-01
C11  1.937359564345E-01  2.151007933913E-01  2.636789535355E-01
C12 -1.937359564345E-01 -2.151007933913E-01 -2.636789535355E-01
C13  1.458382089991E-01  1.028914418181E-01  1.892869580281E-01
C14 -1.458382089991E-01 -1.028914418181E-01 -1.892869580281E-01
C15  2.945627930237E-01  8.338906734331E-02  1.277006064010E-01
C16 -2.945627930237E-01 -8.338906734331E-02 -1.277006064010E-01
C17 -4.980543598156E-01  1.832183700936E-01  1.436575692202E-01
C18  4.980543598156E-01 -1.832183700936E-01 -1.436575692202E-01
C19 -4.521368595611E-01  2.979108741497E-01  2.199709986083E-01
C20  4.521368595611E-01 -2.979108741497E-01 -2.199709986083E-01
C21  2.475462950542E-01 -3.027213743303E-02  5.272496593954E-02
C22 -2.475462950542E-01  3.027213743303E-02 -5.272496593954E-02
C23  3.961780057468E-01 -4.990289599539E-02 -7.995473754386E-03
C24 -3.961780057468E-01  4.990289599539E-02  7.995473754386E-03
C25 -3.498255513348E-01  1.643130252078E-01  8.351791246370E-02
C26  3.498255513348E-01 -1.643130252078E-01 -8.351791246370E-02
C27 -4.413216956550E-01 -1.164028660098E-01  3.028460923316E-01
C28  4.413216956550E-01  1.164028660098E-01 -3.028460923316E-01
C29 -3.994006805453E-01 -7.474659226447E-02  3.864032425551E-01
C30  3.994006805453E-01  7.474659226447E-02 -3.864032425551E-01
C31 -2.134060404941E-01 -1.234198197692E-01  4.251653398052E-01
C32  2.134060404941E-01  1.234198197692E-01 -4.251653398052E-01
C33 -7.328350409545E-02 -2.099050587327E-01  3.787287776559E-01
C34  7.328350409545E-02  2.099050587327E-01 -3.787287776559E-01
C35 -1.099436799401E-01 -2.565932765773E-01  2.903731654818E-01
C36  1.099436799401E-01  2.565932765773E-01 -2.903731654818E-01
C37 -2.999430150379E-01 -2.096567174888E-01  2.515072381289E-01
C38  2.999430150379E-01  2.096567174888E-01 -2.515072381289E-01
C39 -3.393385709121E-01 -2.532059030393E-01  1.664441229067E-01
C40  3.393385709121E-01  2.532059030393E-01 -1.664441229067E-01
C41 -1.980581387401E-01 -3.435678006921E-01  1.160822232185E-01
C42  1.980581387401E-01  3.435678006921E-01 -1.160822232185E-01
C43 -7.573001730821E-03 -3.903701031016E-01  1.550273642271E-01
C44  7.573001730821E-03  3.903701031016E-01 -1.550273642271E-01
C45  2.993031918583E-02 -3.450686960463E-01  2.421263406097E-01
C46 -2.993031918583E-02  3.450686960463E-01 -2.421263406097E-01
C47 -2.364872144299E-01 -3.874108895798E-01  3.022085123567E-02
C48  2.364872144299E-01  3.874108895798E-01 -3.022085123567E-02
C49 -9.533790881909E-02 -4.765846040797E-01 -1.949215812570E-02
C50  9.533790881909E-02  4.765846040797E-01  1.949215812570E-02
C51  1.331541719865E-01 -4.790881299423E-01  1.059370693901E-01
C52 -1.331541719865E-01  4.790881299423E-01 -1.059370693901E-01
H53 -1.123720704257E-01  1.576049033385E-01  3.148065149708E-01
H54  1.123720704257E-01 -1.576049033385E-01 -3.148065149708E-01
H55 -2.210136290379E-02  3.600353645407E-01  4.466968228635E-01
H56  2.210136290379E-02 -3.600353645407E-01 -4.466968228635E-01
H57  3.338498676551E-01 -4.631080724190E-01  4.733695281621E-01
H58 -3.338498676551E-01  4.631080724190E-01 -4.733695281621E-01
H59 -3.983051463475E-01 -4.910480086885E-01  3.687959244991E-01
H60  3.983051463475E-01  4.910480086885E-01 -3.687959244991E-01
H61 -1.109013034298E-02  2.649949889813E-02  1.773917219189E-01
H62  1.109013034298E-02 -2.649949889813E-02 -1.773917219189E-01
H63 -2.951461376137E-01  3.741893883403E-01  2.320040480847E-01
H64  2.951461376137E-01 -3.741893883403E-01 -2.320040480847E-01
H65  9.048144626416E-02 -1.064454955029E-01  4.078203960080E-02
H66 -9.048144626416E-02  1.064454955029E-01 -4.078203960080E-02
H67 -1.926822357220E-01  2.403118529085E-01  9.556590261831E-02
H68  1.926822357220E-01 -2.403118529085E-01 -9.556590261831E-02
H69  4.159086697601E-01 -7.857098869880E-02  2.732636014108E-01
H70 -4.159086697601E-01  7.857098869880E-02 -2.732636014108E-01
H71  4.921764374534E-01 -7.904234012058E-04  4.246117087207E-01
H72 -4.921764374534E-01  7.904234012059E-04 -4.246117087207E-01
H73 -1.832068030138E-01 -8.957956166515E-02  4.928849489908E-01
H74  1.832068030138E-01  8.957956166515E-02 -4.928849489908E-01
H75  7.157774755860E-02 -2.456353764171E-01  4.078565507288E-01
H76 -7.157774755860E-02  2.456353764171E-01 -4.078565507288E-01
H77 -4.834748363078E-01 -2.171955239258E-01  1.368758444746E-01
H78  4.834748363078E-01  2.171955239258E-01 -1.368758444746E-01
H79  1.738137203966E-01 -3.812370573657E-01  2.717972950838E-01
H80 -1.738137203966E-01  3.812370573657E-01 -2.717972950838E-01
H81 -3.807254948806E-01 -3.515981365367E-01  6.403285070040E-04
H82  3.807254948806E-01  3.515981365367E-01 -6.403285070040E-04
H83  2.773774199891E-01  4.852053160193E-01  1.355756310251E-01
H84 -2.773774199891E-01 -4.852053160193E-01 -1.355756310251E-01


#===END

data_OPT_STEP_51

_symmetry_space_group_name_H-M 'P 1'
_cell_length_a      6.45826748
_cell_length_b      7.81113134
_cell_length_c     16.49843669
_cell_angle_alpha   98.670300
_cell_angle_beta   92.559010
_cell_angle_gamma   96.097071

loop_
_atom_site_label
_atom_site_fract_x
_atom_site_fract_y
_atom_site_fract_z
C1  4.398313010296E-02  2.347019229278E-01  3.264232369517E-01
C2 -4.398313010296E-02 -2.347019229278E-01 -3.264232369517E-01
C3  9.385796130482E-02  3.466689870561E-01  3.989411158637E-01
C4 -9.385796130482E-02 -3.466689870561E-01 -3.989411158637E-01
C5  2.971635358637E-01  4.471742017227E-01  4.144160053339E-01
C6 -2.971635358637E-01 -4.471742017227E-01 -4.144160053339E-01
C7  4.453152031956E-01  4.318380615903E-01  3.570658837351E-01
C8 -4.453152031956E-01 -4.318380615903E-01 -3.570658837351E-01
C9  4.003693059424E-01  3.154717296550E-01  2.795499810114E-01
C10 -4.003693059424E-01 -3.154717296550E-01 -2.795499810114E-01
C11  1.937806672156E-01  2.151185644120E-01  2.636809913338E-01
C12 -1.937806672156E-01 -2.151185644120E-01 -2.636809913338E-01
C13  1.459718933640E-01  1.027601893281E-01  1.892555256823E-01
C14 -1.459718933640E-01 -1.027601893281E-01 -1.892555256823E-01
C15  2.946882918900E-01  8.321686237217E-02  1.277148566705E-01
C16 -2.946882918900E-01 -8.321686237217E-02 -1.277148566705E-01
C17 -4.980735504846E-01  1.832279207867E-01  1.437409237962E-01
C18  4.980735504846E-01 -1.832279207867E-01 -1.437409237962E-01
C19 -4.522464940685E-01  2.980668725901E-01  2.200855636106E-01
C20  4.522464940685E-01 -2.980668725901E-01 -2.200855636106E-01
C21  2.476567668928E-01 -3.038472191702E-02  5.265691409375E-02
C22 -2.476567668928E-01  3.038472191702E-02 -5.265691409375E-02
C23  3.962315490559E-01 -4.995988620129E-02 -8.038690805374E-03
C24 -3.962315490559E-01  4.995988620129E-02  8.038690805374E-03
C25 -3.498793191368E-01  1.643388339478E-01  8.363553931260E-02
C26  3.498793191368E-01 -1.643388339478E-01 -8.363553931260E-02
C27 -4.414034957779E-01 -1.164265891368E-01  3.027999445195E-01
C28  4.414034957779E-01  1.164265891368E-01 -3.027999445195E-01
C29 -3.995655136827E-01 -7.471714280918E-02  3.863931921388E-01
C30  3.995655136827E-01  7.471714280918E-02 -3.863931921388E-01
C31 -2.136807130603E-01 -1.233323216795E-01  4.252221867518E-01
C32  2.136807130603E-01  1.233323216795E-01 -4.252221867518E-01
C33 -7.353367981646E-02 -2.097365228752E-01  3.788067321871E-01
C34  7.353367981646E-02  2.097365228752E-01 -3.788067321871E-01
C35 -1.100571276833E-01 -2.564045577047E-01  2.904104761507E-01
C36  1.100571276833E-01  2.564045577047E-01 -2.904104761507E-01
C37 -3.000371040018E-01 -2.096578977031E-01  2.514868644465E-01
C38  3.000371040018E-01  2.096578977031E-01 -2.514868644465E-01
C39 -3.394509933905E-01 -2.533911289448E-01  1.663996528328E-01
C40  3.394509933905E-01  2.533911289448E-01 -1.663996528328E-01
C41 -1.980748872962E-01 -3.435816416447E-01  1.160548963680E-01
C42  1.980748872962E-01  3.435816416447E-01 -1.160548963680E-01
C43 -7.589875817987E-03 -3.901730915217E-01  1.550564546044E-01
C44  7.589875817987E-03  3.901730915217E-01 -1.550564546044E-01
C45  2.974854493326E-02 -3.449465869440E-01  2.421979544419E-01
C46 -2.974854493326E-02  3.449465869440E-01 -2.421979544419E-01
C47 -2.364103807294E-01 -3.874413039456E-01  3.015869616183E-02
C48  2.364103807294E-01  3.874413039456E-01 -3.015869616183E-02
C49 -9.531017603070E-02 -4.766484708565E-01 -1.952299756141E-02
C50  9.531017603070E-02  4.766484708565E-01  1.952299756141E-02
C51  1.330509643356E-01 -4.789800875826E-01  1.060008918399E-01
C52 -1.330509643356E-01  4.789800875826E-01 -1.060008918399E-01
H53 -1.121316014165E-01  1.573872607888E-01  3.147600961876E-01
H54  1.121316014165E-01 -1.573872607888E-01 -3.147600961876E-01
H55 -2.219016638633E-02  3.603857990222E-01  4.466212453200E-01
H56  2.219016638633E-02 -3.603857990222E-01 -4.466212453200E-01
H57  3.337515373658E-01 -4.627532487235E-01  4.734844514129E-01
H58 -3.337515373658E-01  4.627532487235E-01 -4.734844514129E-01
H59 -3.984115919235E-01 -4.908890743087E-01  3.690118674501E-01
H60  3.984115919235E-01  4.908890743087E-01 -3.690118674501E-01
H61 -1.085317303898E-02  2.624217260811E-02  1.773190112392E-01
H62  1.085317303898E-02 -2.624217260811E-02 -1.773190112392E-01
H63 -2.952763776223E-01  3.743288873742E-01  2.321931719875E-01
H64  2.952763776223E-01 -3.743288873742E-01 -2.321931719875E-01
H65  9.058188608693E-02 -1.064730438592E-01  4.061916187122E-02
H66 -9.058188608693E-02  1.064730438592E-01 -4.061916187122E-02
H67 -1.927345785669E-01  2.402751588917E-01  9.577319025617E-02
H68  1.927345785669E-01 -2.402751588917E-01 -9.577319025617E-02
H69  4.159532496112E-01 -7.855101248783E-02  2.731664616248E-01
H70 -4.159532496112E-01  7.855101248783E-02 -2.731664616248E-01
H71  4.919871200123E-01 -7.684225433076E-04  4.245611301736E-01
H72 -4.919871200123E-01  7.684225433077E-04 -4.245611301736E-01
H73 -1.835824202827E-01 -8.954529526616E-02  4.929724191415E-01
H74  1.835824202827E-01  8.954529526616E-02 -4.929724191415E-01
H75  7.135679417023E-02 -2.453018181590E-01  4.079593005102E-01
H76 -7.135679417023E-02  2.453018181590E-01 -4.079593005102E-01
H77 -4.835913120235E-01 -2.175328218486E-01  1.367935360262E-01
H78  4.835913120235E-01  2.175328218486E-01 -1.367935360262E-01
H79  1.734102785060E-01 -3.813000001889E-01  2.719295694804E-01
H80 -1.734102785060E-01  3.813000001889E-01 -2.719295694804E-01
H81 -3.805916105738E-01 -3.516850233509E-01  5.336464208981E-04
H82  3.805916105738E-01  3.516850233509E-01 -5.336464208981E-04
H83  2.770859603324E-01  4.851763146666E-01  1.356969296289E-01
H84 -2.770859603324E-01 -4.851763146666E-01 -1.356969296289E-01


#===END

data_OPT_STEP_52

_symmetry_space_group_name_H-M 'P 1'
_cell_length_a      6.45531291
_cell_length_b      7.81401168
_cell_length_c     16.50060823
_cell_angle_alpha   98.652159
_cell_angle_beta   92.529160
_cell_angle_gamma   96.089484

loop_
_atom_site_label
_atom_site_fract_x
_atom_site_fract_y
_atom_site_fract_z
C1  4.394777630138E-02  2.346516674751E-01  3.264738614318E-01
C2 -4.394777630138E-02 -2.346516674751E-01 -3.264738614318E-01
C3  9.388850889491E-02  3.465096164254E-01  3.989619734674E-01
C4 -9.388850889491E-02 -3.465096164254E-01 -3.989619734674E-01
C5  2.972819850133E-01  4.469182077244E-01  4.143676301311E-01
C6 -2.972819850133E-01 -4.469182077244E-01 -4.143676301311E-01
C7  4.454350310288E-01  4.316448115578E-01  3.569713745594E-01
C8 -4.454350310288E-01 -4.316448115578E-01 -3.569713745594E-01
C9  4.004348243798E-01  3.153663787858E-01  2.794888903306E-01
C10 -4.004348243798E-01 -3.153663787858E-01 -2.794888903306E-01
C11  1.937521205879E-01  2.151136051259E-01  2.636896700913E-01
C12 -1.937521205879E-01 -2.151136051259E-01 -2.636896700913E-01
C13  1.458749522346E-01  1.028577581047E-01  1.892946687613E-01
C14 -1.458749522346E-01 -1.028577581047E-01 -1.892946687613E-01
C15  2.946065464967E-01  8.332755174279E-02  1.277170141207E-01
C16 -2.946065464967E-01 -8.332755174279E-02 -1.277170141207E-01
C17 -4.980509680757E-01  1.832207683366E-01  1.436761316667E-01
C18  4.980509680757E-01 -1.832207683366E-01 -1.436761316667E-01
C19 -4.521514134880E-01  2.979538084648E-01  2.199931455295E-01
C20  4.521514134880E-01 -2.979538084648E-01 -2.199931455295E-01
C21  2.475646294960E-01 -3.028876249247E-02  5.271714249392E-02
C22 -2.475646294960E-01  3.028876249247E-02 -5.271714249392E-02
C23  3.961905631774E-01 -4.992113789451E-02 -7.999867081135E-03
C24 -3.961905631774E-01  4.992113789451E-02  7.999867081135E-03
C25 -3.498190515499E-01  1.642986058887E-01  8.354328257202E-02
C26  3.498190515499E-01 -1.642986058887E-01 -8.354328257202E-02
C27 -4.413687645295E-01 -1.164169237790E-01  3.028374538681E-01
C28  4.413687645295E-01  1.164169237790E-01 -3.028374538681E-01
C29 -3.994821584181E-01 -7.475430084380E-02  3.864023006025E-01
C30  3.994821584181E-01  7.475430084380E-02 -3.864023006025E-01
C31 -2.135062094262E-01 -1.234052410955E-01  4.251777626664E-01
C32  2.135062094262E-01  1.234052410955E-01 -4.251777626664E-01
C33 -7.336485343433E-02 -2.098628848615E-01  3.787438531493E-01
C34  7.336485343433E-02  2.098628848615E-01 -3.787438531493E-01
C35 -1.099741256263E-01 -2.565321581666E-01  2.903786066754E-01
C36  1.099741256263E-01  2.565321581666E-01 -2.903786066754E-01
C37 -2.999778631513E-01 -2.096515237346E-01  2.515028174260E-01
C38  2.999778631513E-01  2.096515237346E-01 -2.515028174260E-01
C39 -3.393903666153E-01 -2.532653731196E-01  1.664378567769E-01
C40  3.393903666153E-01  2.532653731196E-01 -1.664378567769E-01
C41 -1.980563267339E-01 -3.435515902676E-01  1.160761429074E-01
C42  1.980563267339E-01  3.435515902676E-01 -1.160761429074E-01
C43 -7.541140663337E-03 -3.902666338117E-01  1.550284397074E-01
C44  7.541140663337E-03  3.902666338117E-01 -1.550284397074E-01
C45  2.988293788044E-02 -3.450362765920E-01  2.421394976474E-01
C46 -2.988293788044E-02  3.450362765920E-01 -2.421394976474E-01
C47 -2.364703444074E-01 -3.874082819306E-01  3.020966454435E-02
C48  2.364703444074E-01  3.874082819306E-01 -3.020966454435E-02
C49 -9.535286016282E-02 -4.766269796007E-01 -1.949568516875E-02
C50  9.535286016282E-02  4.766269796007E-01  1.949568516875E-02
C51  1.331497583124E-01 -4.790379273192E-01  1.059463419442E-01
C52 -1.331497583124E-01  4.790379273192E-01 -1.059463419442E-01
H53 -1.123035993157E-01  1.575401251621E-01  3.148251833605E-01
H54  1.123035993157E-01 -1.575401251621E-01 -3.148251833605E-01
H55 -2.217161499916E-02  3.602261666904E-01  4.466717926686E-01
H56  2.217161499916E-02 -3.602261666904E-01 -4.466717926686E-01
H57  3.338430943642E-01 -4.629826397882E-01  4.733934073188E-01
H58 -3.338430943642E-01  4.629826397882E-01 -4.733934073188E-01
H59 -3.982813249001E-01 -4.910467542736E-01  3.688485875637E-01
H60  3.982813249001E-01  4.910467542736E-01 -3.688485875637E-01
H61 -1.103213296452E-02  2.643620473197E-02  1.773988363495E-01
H62  1.103213296452E-02 -2.643620473197E-02 -1.773988363495E-01
H63 -2.951346851313E-01  3.741845705138E-01  2.320447362606E-01
H64  2.951346851313E-01 -3.741845705138E-01 -2.320447362606E-01
H65  9.047579672069E-02 -1.064093087812E-01  4.075275792234E-02
H66 -9.047579672069E-02  1.064093087812E-01 -4.075275792234E-02
H67 -1.926508253394E-01  2.402465291362E-01  9.561230921186E-02
H68  1.926508253394E-01 -2.402465291362E-01 -9.561230921186E-02
H69  4.159045957481E-01 -7.855033263370E-02  2.732442798747E-01
H70 -4.159045957481E-01  7.855033263370E-02 -2.732442798747E-01
H71  4.920727844039E-01 -7.854028342298E-04  4.245912187917E-01
H72 -4.920727844039E-01  7.854028342298E-04 -4.245912187917E-01
H73 -1.833440295460E-01 -8.959990665805E-02  4.929043855474E-01
H74  1.833440295460E-01  8.959990665805E-02 -4.929043855474E-01
H75  7.153457246228E-02 -2.455228277150E-01  4.078678553422E-01
H76 -7.153457246228E-02  2.455228277150E-01 -4.078678553422E-01
H77 -4.835480382655E-01 -2.173139467509E-01  1.368662827097E-01
H78  4.835480382655E-01  2.173139467509E-01 -1.368662827097E-01
H79  1.736771274095E-01 -3.813131977345E-01  2.718251098611E-01
H80 -1.736771274095E-01  3.813131977345E-01 -2.718251098611E-01
H81 -3.807033261034E-01 -3.516107031859E-01  6.233188712937E-04
H82  3.807033261034E-01  3.516107031859E-01 -6.233188712937E-04
H83  2.773054385464E-01  4.851775483364E-01  1.355971160924E-01
H84 -2.773054385464E-01 -4.851775483364E-01 -1.355971160924E-01


#===END

data_OPT_STEP_53

_symmetry_space_group_name_H-M 'P 1'
_cell_length_a      6.45548329
_cell_length_b      7.81396109
_cell_length_c     16.50064684
_cell_angle_alpha   98.653464
_cell_angle_beta   92.528514
_cell_angle_gamma   96.090444

loop_
_atom_site_label
_atom_site_fract_x
_atom_site_fract_y
_atom_site_fract_z
C1  4.394283130086E-02  2.346495706315E-01  3.264733147623E-01
C2 -4.394283130086E-02 -2.346495706315E-01 -3.264733147623E-01
C3  9.387417071980E-02  3.465177258663E-01  3.989601897649E-01
C4 -9.387417071980E-02 -3.465177258663E-01 -3.989601897649E-01
C5  2.972694804969E-01  4.469145886540E-01  4.143705519337E-01
C6 -2.972694804969E-01 -4.469145886540E-01 -4.143705519337E-01
C7  4.454262203862E-01  4.316336535709E-01  3.569769857044E-01
C8 -4.454262203862E-01 -4.316336535709E-01 -3.569769857044E-01
C9  4.004221090635E-01  3.153702485646E-01  2.794900597472E-01
C10 -4.004221090635E-01 -3.153702485646E-01 -2.794900597472E-01
C11  1.937422643451E-01  2.151195905270E-01  2.636880619597E-01
C12 -1.937422643451E-01 -2.151195905270E-01 -2.636880619597E-01
C13  1.458641994055E-01  1.028709991545E-01  1.892898690305E-01
C14 -1.458641994055E-01 -1.028709991545E-01 -1.892898690305E-01
C15  2.945900006095E-01  8.335181129277E-02  1.277103964174E-01
C16 -2.945900006095E-01 -8.335181129277E-02 -1.277103964174E-01
C17 -4.980738116633E-01  1.832498439790E-01  1.436710411616E-01
C18  4.980738116633E-01 -1.832498439790E-01 -1.436710411616E-01
C19 -4.521659129663E-01  2.979607781676E-01  2.199948779768E-01
C20  4.521659129663E-01 -2.979607781676E-01 -2.199948779768E-01
C21  2.475608894318E-01 -3.028070592869E-02  5.271265451947E-02
C22 -2.475608894318E-01  3.028070592869E-02 -5.271265451947E-02
C23  3.961946590671E-01 -4.992544188277E-02 -8.000211348100E-03
C24 -3.961946590671E-01  4.992544188277E-02  8.000211348100E-03
C25 -3.498340698792E-01  1.643141255011E-01  8.354261221694E-02
C26  3.498340698792E-01 -1.643141255011E-01 -8.354261221694E-02
C27 -4.413414473384E-01 -1.164025901554E-01  3.028395324647E-01
C28  4.413414473384E-01  1.164025901554E-01 -3.028395324647E-01
C29 -3.994635887316E-01 -7.474342978719E-02  3.864046759292E-01
C30  3.994635887316E-01  7.474342978719E-02 -3.864046759292E-01
C31 -2.134902626327E-01 -1.233895704052E-01  4.251798984489E-01
C32  2.134902626327E-01  1.233895704052E-01 -4.251798984489E-01
C33 -7.336325389868E-02 -2.098657553596E-01  3.787470165592E-01
C34  7.336325389868E-02  2.098657553596E-01 -3.787470165592E-01
C35 -1.099738665260E-01 -2.565426705846E-01  2.903819378003E-01
C36  1.099738665260E-01  2.565426705846E-01 -2.903819378003E-01
C37 -2.999561465862E-01 -2.096403647932E-01  2.515051829691E-01
C38  2.999561465862E-01  2.096403647932E-01 -2.515051829691E-01
C39 -3.393539126917E-01 -2.532341950015E-01  1.664388847008E-01
C40  3.393539126917E-01  2.532341950015E-01 -1.664388847008E-01
C41 -1.980394442096E-01 -3.435404384393E-01  1.160776766924E-01
C42  1.980394442096E-01  3.435404384393E-01 -1.160776766924E-01
C43 -7.536219924701E-03 -3.902646768649E-01  1.550294923682E-01
C44  7.536219924701E-03  3.902646768649E-01 -1.550294923682E-01
C45  2.988735278110E-02 -3.450343606616E-01  2.421408387882E-01
C46 -2.988735278110E-02  3.450343606616E-01 -2.421408387882E-01
C47 -2.364656089924E-01 -3.874137353881E-01  3.021226420860E-02
C48  2.364656089924E-01  3.874137353881E-01 -3.021226420860E-02
C49 -9.535932937710E-02 -4.766399112919E-01 -1.949418733729E-02
C50  9.535932937710E-02  4.766399112919E-01  1.949418733729E-02
C51  1.331586683940E-01 -4.790224850532E-01  1.059448778848E-01
C52 -1.331586683940E-01  4.790224850532E-01 -1.059448778848E-01
H53 -1.123179703143E-01  1.575631158933E-01  3.148165565382E-01
H54  1.123179703143E-01 -1.575631158933E-01 -3.148165565382E-01
H55 -2.219072923194E-02  3.602397082942E-01  4.466671570595E-01
H56  2.219072923194E-02 -3.602397082942E-01 -4.466671570595E-01
H57  3.338235314335E-01 -4.629796337254E-01  4.733957396238E-01
H58 -3.338235314335E-01  4.629796337254E-01 -4.733957396238E-01
H59 -3.983109627269E-01 -4.910246447700E-01  3.688492220400E-01
H60  3.983109627269E-01  4.910246447700E-01 -3.688492220400E-01
H61 -1.104374671815E-02  2.645900319962E-02  1.773893391480E-01
H62  1.104374671815E-02 -2.645900319962E-02 -1.773893391480E-01
H63 -2.951512561073E-01  3.741880805608E-01  2.320499394712E-01
H64  2.951512561073E-01 -3.741880805608E-01 -2.320499394712E-01
H65  9.048991332881E-02 -1.064283507189E-01  4.075213022583E-02
H66 -9.048991332881E-02  1.064283507189E-01 -4.075213022583E-02
H67 -1.926759085202E-01  2.402752403576E-01  9.561124504349E-02
H68  1.926759085202E-01 -2.402752403576E-01 -9.561124504349E-02
H69  4.159368383988E-01 -7.853932278015E-02  2.732459162483E-01
H70 -4.159368383988E-01  7.853932278015E-02 -2.732459162483E-01
H71  4.921088372908E-01 -7.456066992025E-04  4.245894916786E-01
H72 -4.921088372908E-01  7.456066992026E-04 -4.245894916786E-01
H73 -1.833283414457E-01 -8.958244966705E-02  4.929069275771E-01
H74  1.833283414457E-01  8.958244966705E-02 -4.929069275771E-01
H75  7.151136936718E-02 -2.455499342150E-01  4.078746351244E-01
H76 -7.151136936718E-02  2.455499342150E-01 -4.078746351244E-01
H77 -4.834912051790E-01 -2.172615109056E-01  1.368659069956E-01
H78  4.834912051790E-01  2.172615109056E-01 -1.368659069956E-01
H79  1.736975354853E-01 -3.812806858839E-01  2.718243678315E-01
H80 -1.736975354853E-01  3.812806858839E-01 -2.718243678315E-01
H81 -3.806918284812E-01 -3.516136121668E-01  6.261217622321E-04
H82  3.806918284812E-01  3.516136121668E-01 -6.261217622321E-04
H83  2.773293904914E-01  4.852216877651E-01  1.355934522955E-01
H84 -2.773293904914E-01 -4.852216877651E-01 -1.355934522955E-01


#===END

data_OPT_STEP_54

_symmetry_space_group_name_H-M 'P 1'
_cell_length_a      6.45551395
_cell_length_b      7.81395531
_cell_length_c     16.50076520
_cell_angle_alpha   98.654348
_cell_angle_beta   92.527350
_cell_angle_gamma   96.092052

loop_
_atom_site_label
_atom_site_fract_x
_atom_site_fract_y
_atom_site_fract_z
C1  4.394826440033E-02  2.346543348851E-01  3.264755912539E-01
C2 -4.394826440033E-02 -2.346543348851E-01 -3.264755912539E-01
C3  9.388291602114E-02  3.465202039356E-01  3.989629192702E-01
C4 -9.388291602114E-02 -3.465202039356E-01 -3.989629192702E-01
C5  2.972754643265E-01  4.469264671745E-01  4.143705955759E-01
C6 -2.972754643265E-01 -4.469264671745E-01 -4.143705955759E-01
C7  4.454338515575E-01  4.316392895237E-01  3.569776340210E-01
C8 -4.454338515575E-01 -4.316392895237E-01 -3.569776340210E-01
C9  4.004277862600E-01  3.153754068826E-01  2.794910190824E-01
C10 -4.004277862600E-01 -3.153754068826E-01 -2.794910190824E-01
C11  1.937480379576E-01  2.151211690335E-01  2.636901960175E-01
C12 -1.937480379576E-01 -2.151211690335E-01 -2.636901960175E-01
C13  1.458639112741E-01  1.028769678106E-01  1.892902260519E-01
C14 -1.458639112741E-01 -1.028769678106E-01 -1.892902260519E-01
C15  2.945909370619E-01  8.335558491041E-02  1.277106861256E-01
C16 -2.945909370619E-01 -8.335558491041E-02 -1.277106861256E-01
C17 -4.980713311649E-01  1.832528178522E-01  1.436715133545E-01
C18  4.980713311649E-01 -1.832528178522E-01 -1.436715133545E-01
C19 -4.521617263128E-01  2.979655158514E-01  2.199952041158E-01
C20  4.521617263128E-01 -2.979655158514E-01 -2.199952041158E-01
C21  2.475618396388E-01 -3.028008261898E-02  5.271315775482E-02
C22 -2.475618396388E-01  3.028008261898E-02 -5.271315775482E-02
C23  3.961971426579E-01 -4.993012194855E-02 -7.999037798752E-03
C24 -3.961971426579E-01  4.993012194855E-02  7.999037798752E-03
C25 -3.498338214327E-01  1.643166838968E-01  8.354231076414E-02
C26  3.498338214327E-01 -1.643166838968E-01 -8.354231076414E-02
C27 -4.413671366935E-01 -1.164300171721E-01  3.028404014768E-01
C28  4.413671366935E-01  1.164300171721E-01 -3.028404014768E-01
C29 -3.994868956904E-01 -7.476040749368E-02  3.864046193341E-01
C30  3.994868956904E-01  7.476040749368E-02 -3.864046193341E-01
C31 -2.134939398697E-01 -1.233732234446E-01  4.251780499305E-01
C32  2.134939398697E-01  1.233732234446E-01 -4.251780499305E-01
C33 -7.336399859870E-02 -2.098463845163E-01  3.787454532893E-01
C34  7.336399859870E-02  2.098463845163E-01 -3.787454532893E-01
C35 -1.099781123996E-01 -2.565357259474E-01  2.903814253871E-01
C36  1.099781123996E-01  2.565357259474E-01 -2.903814253871E-01
C37 -2.999637890529E-01 -2.096451180190E-01  2.515051351939E-01
C38  2.999637890529E-01  2.096451180190E-01 -2.515051351939E-01
C39 -3.393565701706E-01 -2.532358482950E-01  1.664384647965E-01
C40  3.393565701706E-01  2.532358482950E-01 -1.664384647965E-01
C41 -1.980377534531E-01 -3.435363005752E-01  1.160770217963E-01
C42  1.980377534531E-01  3.435363005752E-01 -1.160770217963E-01
C43 -7.529336492132E-03 -3.902466635612E-01  1.550283935889E-01
C44  7.529336492132E-03  3.902466635612E-01 -1.550283935889E-01
C45  2.989610428021E-02 -3.450076712372E-01  2.421391252441E-01
C46 -2.989610428021E-02  3.450076712372E-01 -2.421391252441E-01
C47 -2.364692848052E-01 -3.874221063834E-01  3.021237675268E-02
C48  2.364692848052E-01  3.874221063834E-01 -3.021237675268E-02
C49 -9.536449348282E-02 -4.766509279671E-01 -1.949368647423E-02
C50  9.536449348282E-02  4.766509279671E-01  1.949368647423E-02
C51  1.331657214318E-01 -4.790028878060E-01  1.059436480995E-01
C52 -1.331657214318E-01  4.790028878060E-01 -1.059436480995E-01
H53 -1.123217562675E-01  1.575840854752E-01  3.148154760232E-01
H54  1.123217562675E-01 -1.575840854752E-01 -3.148154760232E-01
H55 -2.218172864510E-02  3.602404572095E-01  4.466702602214E-01
H56  2.218172864510E-02 -3.602404572095E-01 -4.466702602214E-01
H57  3.338280905022E-01 -4.629614684786E-01  4.733944885281E-01
H58 -3.338280905022E-01  4.629614684786E-01 -4.733944885281E-01
H59 -3.983008880360E-01 -4.910201129615E-01  3.688495015944E-01
H60  3.983008880360E-01  4.910201129615E-01 -3.688495015944E-01
H61 -1.105058480879E-02  2.647011382592E-02  1.773880284995E-01
H62  1.105058480879E-02 -2.647011382592E-02 -1.773880284995E-01
H63 -2.951471414140E-01  3.741913217010E-01  2.320500338103E-01
H64  2.951471414140E-01 -3.741913217010E-01 -2.320500338103E-01
H65  9.048232851093E-02 -1.064143553295E-01  4.074911566108E-02
H66 -9.048232851093E-02  1.064143553295E-01 -4.074911566108E-02
H67 -1.926679278217E-01  2.402644025580E-01  9.561408024664E-02
H68  1.926679278217E-01 -2.402644025580E-01 -9.561408024664E-02
H69  4.158671535008E-01 -7.863266350640E-02  2.732505634922E-01
H70 -4.158671535008E-01  7.863266350640E-02 -2.732505634922E-01
H71  4.920602544411E-01 -7.966386759057E-04  4.245908892772E-01
H72 -4.920602544411E-01  7.966386759057E-04 -4.245908892772E-01
H73 -1.833231925304E-01 -8.954761363745E-02  4.929037327613E-01
H74  1.833231925304E-01  8.954761363745E-02 -4.929037327613E-01
H75  7.151297359280E-02 -2.455202635503E-01  4.078722341260E-01
H76 -7.151297359280E-02  2.455202635503E-01 -4.078722341260E-01
H77 -4.835114244438E-01 -2.172920629379E-01  1.368670387994E-01
H78  4.835114244438E-01  2.172920629379E-01 -1.368670387994E-01
H79  1.737252893285E-01 -3.812207126070E-01  2.718204986015E-01
H80 -1.737252893285E-01  3.812207126070E-01 -2.718204986015E-01
H81 -3.807055725399E-01 -3.516409370274E-01  6.270342387838E-04
H82  3.807055725399E-01  3.516409370274E-01 -6.270342387838E-04
H83  2.773493867149E-01  4.852658656602E-01  1.355902622370E-01
H84 -2.773493867149E-01 -4.852658656602E-01 -1.355902622370E-01


#===END

data_OPT_STEP_55

_symmetry_space_group_name_H-M 'P 1'
_cell_length_a      6.45570074
_cell_length_b      7.81379246
_cell_length_c     16.50079573
_cell_angle_alpha   98.654357
_cell_angle_beta   92.526008
_cell_angle_gamma   96.096350

loop_
_atom_site_label
_atom_site_fract_x
_atom_site_fract_y
_atom_site_fract_z
C1  4.395094006255E-02  2.346673174062E-01  3.264719669501E-01
C2 -4.395094006255E-02 -2.346673174062E-01 -3.264719669501E-01
C3  9.388919229361E-02  3.465306129197E-01  3.989607725509E-01
C4 -9.388919229361E-02 -3.465306129197E-01 -3.989607725509E-01
C5  2.972915314159E-01  4.469261196100E-01  4.143724338075E-01
C6 -2.972915314159E-01 -4.469261196100E-01 -4.143724338075E-01
C7  4.454429729922E-01  4.316470481321E-01  3.569781085245E-01
C8 -4.454429729922E-01 -4.316470481321E-01 -3.569781085245E-01
C9  4.004374712553E-01  3.153789334306E-01  2.794922138901E-01
C10 -4.004374712553E-01 -3.153789334306E-01 -2.794922138901E-01
C11  1.937565695019E-01  2.151211158695E-01  2.636901922876E-01
C12 -1.937565695019E-01 -2.151211158695E-01 -2.636901922876E-01
C13  1.458802459135E-01  1.028561462139E-01  1.892939149788E-01
C14 -1.458802459135E-01 -1.028561462139E-01 -1.892939149788E-01
C15  2.946077465459E-01  8.333479738412E-02  1.277154151804E-01
C16 -2.946077465459E-01 -8.333479738412E-02 -1.277154151804E-01
C17 -4.980570161541E-01  1.832381935469E-01  1.436770707776E-01
C18  4.980570161541E-01 -1.832381935469E-01 -1.436770707776E-01
C19 -4.521478638052E-01  2.979579986770E-01  2.199995100298E-01
C20  4.521478638052E-01 -2.979579986770E-01 -2.199995100298E-01
C21  2.475668474606E-01 -3.028189151548E-02  5.271231772023E-02
C22 -2.475668474606E-01  3.028189151548E-02 -5.271231772023E-02
C23  3.961945683585E-01 -4.992496103811E-02 -8.001501697340E-03
C24 -3.961945683585E-01  4.992496103811E-02  8.001501697340E-03
C25 -3.498247099531E-01  1.643024176957E-01  8.354777376217E-02
C26  3.498247099531E-01 -1.643024176957E-01 -8.354777376217E-02
C27 -4.414036374240E-01 -1.164948756305E-01  3.028417891901E-01
C28  4.414036374240E-01  1.164948756305E-01 -3.028417891901E-01
C29 -3.995167287944E-01 -7.480488178812E-02  3.864048014198E-01
C30  3.995167287944E-01  7.480488178812E-02 -3.864048014198E-01
C31 -2.134965700320E-01 -1.233617743321E-01  4.251762888580E-01
C32  2.134965700320E-01  1.233617743321E-01 -4.251762888580E-01
C33 -7.333312042780E-02 -2.097785805443E-01  3.787413323906E-01
C34  7.333312042780E-02  2.097785805443E-01 -3.787413323906E-01
C35 -1.099455712841E-01 -2.564763748590E-01  2.903777755686E-01
C36  1.099455712841E-01  2.564763748590E-01 -2.903777755686E-01
C37 -2.999685518145E-01 -2.096607921267E-01  2.515046732087E-01
C38  2.999685518145E-01  2.096607921267E-01 -2.515046732087E-01
C39 -3.393709277568E-01 -2.532734857116E-01  1.664388698073E-01
C40  3.393709277568E-01  2.532734857116E-01 -1.664388698073E-01
C41 -1.980367006761E-01 -3.435438006161E-01  1.160761191671E-01
C42  1.980367006761E-01  3.435438006161E-01 -1.160761191671E-01
C43 -7.519741737830E-03 -3.902217864370E-01  1.550274998447E-01
C44  7.519741737830E-03  3.902217864370E-01 -1.550274998447E-01
C45  2.993588547566E-02 -3.449280316093E-01  2.421349070581E-01
C46 -2.993588547566E-02  3.449280316093E-01 -2.421349070581E-01
C47 -2.364646294851E-01 -3.874335857461E-01  3.021127041698E-02
C48  2.364646294851E-01  3.874335857461E-01 -3.021127041698E-02
C49 -9.534964754341E-02 -4.766403616149E-01 -1.949532488363E-02
C50  9.534964754341E-02  4.766403616149E-01  1.949532488363E-02
C51  1.331682308761E-01 -4.789776961284E-01  1.059431301252E-01
C52 -1.331682308761E-01  4.789776961284E-01 -1.059431301252E-01
H53 -1.123248726779E-01  1.576088169552E-01  3.148088520920E-01
H54  1.123248726779E-01 -1.576088169552E-01 -3.148088520920E-01
H55 -2.216945242613E-02  3.602385887374E-01  4.466705369728E-01
H56  2.216945242613E-02 -3.602385887374E-01 -4.466705369728E-01
H57  3.338420947395E-01 -4.629501320192E-01  4.733937695022E-01
H58 -3.338420947395E-01  4.629501320192E-01 -4.733937695022E-01
H59 -3.982910101571E-01 -4.910071788283E-01  3.688489922151E-01
H60  3.982910101571E-01  4.910071788283E-01 -3.688489922151E-01
H61 -1.106646310218E-02  2.649907337066E-02  1.773781380347E-01
H62  1.106646310218E-02 -2.649907337066E-02 -1.773781380347E-01
H63 -2.951434257360E-01  3.741952766182E-01  2.320509531119E-01
H64  2.951434257360E-01 -3.741952766182E-01 -2.320509531119E-01
H65  9.047571699003E-02 -1.063973598889E-01  4.074292464890E-02
H66 -9.047571699003E-02  1.063973598889E-01 -4.074292464890E-02
H67 -1.926592459184E-01  2.402516944555E-01  9.561938855840E-02
H68  1.926592459184E-01 -2.402516944555E-01 -9.561938855840E-02
H69  4.157622687396E-01 -7.880229074228E-02  2.732571981043E-01
H70 -4.157622687396E-01  7.880229074228E-02 -2.732571981043E-01
H71  4.919935771054E-01 -8.974947615178E-04  4.245944187931E-01
H72 -4.919935771054E-01  8.974947615179E-04 -4.245944187931E-01
H73 -1.833369220811E-01 -8.954317233187E-02  4.929024904452E-01
H74  1.833369220811E-01  8.954317233187E-02 -4.929024904452E-01
H75  7.155567203100E-02 -2.454200743317E-01  4.078655198942E-01
H76 -7.155567203100E-02  2.454200743317E-01 -4.078655198942E-01
H77 -4.835577685890E-01 -2.173857331655E-01  1.368701787427E-01
H78  4.835577685890E-01  2.173857331655E-01 -1.368701787427E-01
H79  1.737907058488E-01 -3.810901249815E-01  2.718133266336E-01
H80 -1.737907058488E-01  3.810901249815E-01 -2.718133266336E-01
H81 -3.807282572771E-01 -3.517037582135E-01  6.280007405639E-04
H82  3.807282572771E-01  3.517037582135E-01 -6.280007405639E-04
H83  2.773588612289E-01  4.853143762755E-01  1.355875183143E-01
H84 -2.773588612289E-01 -4.853143762755E-01 -1.355875183143E-01


#===END

data_OPT_STEP_56

_symmetry_space_group_name_H-M 'P 1'
_cell_length_a      6.45604171
_cell_length_b      7.81356028
_cell_length_c     16.50094448
_cell_angle_alpha   98.652814
_cell_angle_beta   92.520709
_cell_angle_gamma   96.103264

loop_
_atom_site_label
_atom_site_fract_x
_atom_site_fract_y
_atom_site_fract_z
C1  4.396690876060E-02  2.346722694924E-01  3.264729857591E-01
C2 -4.396690876060E-02 -2.346722694924E-01 -3.264729857591E-01
C3  9.389765353444E-02  3.465564065450E-01  3.989566748347E-01
C4 -9.389765353444E-02 -3.465564065450E-01 -3.989566748347E-01
C5  2.973119180333E-01  4.469394631734E-01  4.143689379197E-01
C6 -2.973119180333E-01 -4.469394631734E-01 -4.143689379197E-01
C7  4.454699590549E-01  4.316360645266E-01  3.569774862275E-01
C8 -4.454699590549E-01 -4.316360645266E-01 -3.569774862275E-01
C9  4.004649275316E-01  3.153613885020E-01  2.794948370663E-01
C10 -4.004649275316E-01 -3.153613885020E-01 -2.794948370663E-01
C11  1.937747449634E-01  2.151144748331E-01  2.636926300989E-01
C12 -1.937747449634E-01 -2.151144748331E-01 -2.636926300989E-01
C13  1.458793811587E-01  1.028820053016E-01  1.892913115241E-01
C14 -1.458793811587E-01 -1.028820053016E-01 -1.892913115241E-01
C15  2.946024271034E-01  8.336085652128E-02  1.277113252210E-01
C16 -2.946024271034E-01 -8.336085652128E-02 -1.277113252210E-01
C17 -4.980525522523E-01  1.832472757656E-01  1.436740647801E-01
C18  4.980525522523E-01 -1.832472757656E-01 -1.436740647801E-01
C19 -4.521289327761E-01  2.979494035943E-01  2.199982689111E-01
C20  4.521289327761E-01 -2.979494035943E-01 -2.199982689111E-01
C21  2.475685917338E-01 -3.027019446046E-02  5.271406981536E-02
C22 -2.475685917338E-01  3.027019446046E-02 -5.271406981536E-02
C23  3.962012260014E-01 -4.993536664782E-02 -7.997099210633E-03
C24 -3.962012260014E-01  4.993536664782E-02  7.997099210633E-03
C25 -3.498271176035E-01  1.643079822633E-01  8.354240227472E-02
C26  3.498271176035E-01 -1.643079822633E-01 -8.354240227472E-02
C27 -4.414776902446E-01 -1.166490928059E-01  3.028472111144E-01
C28  4.414776902446E-01  1.166490928059E-01 -3.028472111144E-01
C29 -3.995749064938E-01 -7.490581500194E-02  3.864046358114E-01
C30  3.995749064938E-01  7.490581500194E-02 -3.864046358114E-01
C31 -2.134647723540E-01 -1.232968649201E-01  4.251648643600E-01
C32  2.134647723540E-01  1.232968649201E-01 -4.251648643600E-01
C33 -7.330169285554E-02 -2.096979750668E-01  3.787300935166E-01
C34  7.330169285554E-02  2.096979750668E-01 -3.787300935166E-01
C35 -1.099369704571E-01 -2.564523754498E-01  2.903722611975E-01
C36  1.099369704571E-01  2.564523754498E-01 -2.903722611975E-01
C37 -2.999643807869E-01 -2.096868526380E-01  2.515034741010E-01
C38  2.999643807869E-01  2.096868526380E-01 -2.515034741010E-01
C39 -3.393420747441E-01 -2.532785071431E-01  1.664388826428E-01
C40  3.393420747441E-01  2.532785071431E-01 -1.664388826428E-01
C41 -1.979916002855E-01 -3.435042089459E-01  1.160727095768E-01
C42  1.979916002855E-01  3.435042089459E-01 -1.160727095768E-01
C43 -7.473962769834E-03 -3.901437224244E-01  1.550202229583E-01
C44  7.473962769834E-03  3.901437224244E-01 -1.550202229583E-01
C45  2.999363045474E-02 -3.448138566269E-01  2.421229072357E-01
C46 -2.999363045474E-02  3.448138566269E-01 -2.421229072357E-01
C47 -2.364681689957E-01 -3.874778545881E-01  3.021631872126E-02
C48  2.364681689957E-01  3.874778545881E-01 -3.021631872126E-02
C49 -9.537839018743E-02 -4.767008332476E-01 -1.949034582698E-02
C50  9.537839018743E-02  4.767008332476E-01  1.949034582698E-02
C51  1.332196486347E-01 -4.788705440487E-01  1.059323009882E-01
C52 -1.332196486347E-01  4.788705440487E-01 -1.059323009882E-01
H53 -1.123267509498E-01  1.576514233774E-01  3.148040836514E-01
H54  1.123267509498E-01 -1.576514233774E-01 -3.148040836514E-01
H55 -2.216364583516E-02  3.602617896311E-01  4.466667801529E-01
H56  2.216364583516E-02 -3.602617896311E-01 -4.466667801529E-01
H57  3.338573998611E-01 -4.629173813023E-01  4.733843477746E-01
H58 -3.338573998611E-01  4.629173813023E-01 -4.733843477746E-01
H59 -3.982460273255E-01 -4.910427047608E-01  3.688511152935E-01
H60  3.982460273255E-01  4.910427047608E-01 -3.688511152935E-01
H61 -1.111987364517E-02  2.661194156570E-02  1.773561314307E-01
H62  1.111987364517E-02 -2.661194156570E-02 -1.773561314307E-01
H63 -2.951208437062E-01  3.741697694912E-01  2.320502744835E-01
H64  2.951208437062E-01 -3.741697694912E-01 -2.320502744835E-01
H65  9.045180516700E-02 -1.063375619388E-01  4.073527379675E-02
H66 -9.045180516700E-02  1.063375619388E-01 -4.073527379675E-02
H67 -1.926536636943E-01  2.402407502104E-01  9.561488936255E-02
H68  1.926536636943E-01 -2.402407502104E-01 -9.561488936255E-02
H69  4.155566209449E-01 -7.916432505337E-02  2.732737573572E-01
H70 -4.155566209449E-01  7.916432505337E-02 -2.732737573572E-01
H71  4.918666177560E-01 -1.086018558443E-03  4.245949307123E-01
H72 -4.918666177560E-01  1.086018558443E-03 -4.245949307123E-01
H73 -1.832897438643E-01 -8.944320894583E-02  4.928874256104E-01
H74  1.832897438643E-01  8.944320894583E-02 -4.928874256104E-01
H75  7.160403928402E-02 -2.452834032693E-01  4.078511755651E-01
H76 -7.160403928402E-02  2.452834032693E-01 -4.078511755651E-01
H77 -4.835932871930E-01 -2.175050465696E-01  1.368782802475E-01
H78  4.835932871930E-01  2.175050465696E-01 -1.368782802475E-01
H79  1.739225822648E-01 -3.808417184348E-01  2.717914764090E-01
H80 -1.739225822648E-01  3.808417184348E-01 -2.717914764090E-01
H81 -3.807857034477E-01 -3.518492727628E-01  6.406197891895E-04
H82  3.807857034477E-01  3.518492727628E-01 -6.406197891895E-04
H83  2.774239129365E-01  4.854635370744E-01  1.355696299742E-01
H84 -2.774239129365E-01 -4.854635370744E-01 -1.355696299742E-01


#===END

data_OPT_STEP_57

_symmetry_space_group_name_H-M 'P 1'
_cell_length_a      6.45768260
_cell_length_b      7.81138271
_cell_length_c     16.50106914
_cell_angle_alpha   98.650458
_cell_angle_beta   92.518788
_cell_angle_gamma   96.111231

loop_
_atom_site_label
_atom_site_fract_x
_atom_site_fract_y
_atom_site_fract_z
C1  4.405097100117E-02  2.347020479113E-01  3.264602592152E-01
C2 -4.405097100117E-02 -2.347020479113E-01 -3.264602592152E-01
C3  9.400721615391E-02  3.465466135514E-01  3.989591770307E-01
C4 -9.400721615391E-02 -3.465466135514E-01 -3.989591770307E-01
C5  2.973749269429E-01  4.469772640963E-01  4.143729299154E-01
C6 -2.973749269429E-01 -4.469772640963E-01 -4.143729299154E-01
C7  4.454776638791E-01  4.317138377396E-01  3.569749610135E-01
C8 -4.454776638791E-01 -4.317138377396E-01 -3.569749610135E-01
C9  4.004884895815E-01  3.154038316276E-01  2.794956356424E-01
C10 -4.004884895815E-01 -3.154038316276E-01 -2.794956356424E-01
C11  1.938350949248E-01  2.151319685068E-01  2.636867921228E-01
C12 -1.938350949248E-01 -2.151319685068E-01 -2.636867921228E-01
C13  1.459419180003E-01  1.028966007692E-01  1.892801225351E-01
C14 -1.459419180003E-01 -1.028966007692E-01 -1.892801225351E-01
C15  2.946650675897E-01  8.332396719902E-02  1.277171041545E-01
C16 -2.946650675897E-01 -8.332396719902E-02 -1.277171041545E-01
C17 -4.980163403749E-01  1.832131931552E-01  1.436922995064E-01
C18  4.980163403749E-01 -1.832131931552E-01 -1.436922995064E-01
C19 -4.521125672149E-01  2.979552517964E-01  2.200117236731E-01
C20  4.521125672149E-01 -2.979552517964E-01 -2.200117236731E-01
C21  2.476145907801E-01 -3.027384328619E-02  5.270548904270E-02
C22 -2.476145907801E-01  3.027384328619E-02 -5.270548904270E-02
C23  3.962111061348E-01 -4.992926709619E-02 -8.005290757666E-03
C24 -3.962111061348E-01  4.992926709619E-02  8.005290757666E-03
C25 -3.498325597861E-01  1.642937669045E-01  8.355857939093E-02
C26  3.498325597861E-01 -1.642937669045E-01 -8.355857939093E-02
C27 -4.415762548312E-01 -1.168264689294E-01  3.028445183747E-01
C28  4.415762548312E-01  1.168264689294E-01 -3.028445183747E-01
C29 -3.996506215384E-01 -7.499933287146E-02  3.863965476081E-01
C30  3.996506215384E-01  7.499933287146E-02 -3.863965476081E-01
C31 -2.134763658354E-01 -1.232146076259E-01  4.251498682673E-01
C32  2.134763658354E-01  1.232146076259E-01 -4.251498682673E-01
C33 -7.322948881163E-02 -2.094560466961E-01  3.787081491787E-01
C34  7.322948881163E-02  2.094560466961E-01 -3.787081491787E-01
C35 -1.098715054869E-01 -2.562713575987E-01  2.903552470406E-01
C36  1.098715054869E-01  2.562713575987E-01 -2.903552470406E-01
C37 -3.000014398539E-01 -2.097455089750E-01  2.514970303058E-01
C38  3.000014398539E-01  2.097455089750E-01 -2.514970303058E-01
C39 -3.394032498378E-01 -2.534237112679E-01  1.664375175290E-01
C40  3.394032498378E-01  2.534237112679E-01 -1.664375175290E-01
C41 -1.980179450552E-01 -3.435645982384E-01  1.160691147581E-01
C42  1.980179450552E-01  3.435645982384E-01 -1.160691147581E-01
C43 -7.454590256723E-03 -3.900485175952E-01  1.550133757369E-01
C44  7.454590256723E-03  3.900485175952E-01 -1.550133757369E-01
C45  3.006007296356E-02 -3.445962403904E-01  2.421072833639E-01
C46 -3.006007296356E-02  3.445962403904E-01 -2.421072833639E-01
C47 -2.364595448144E-01 -3.875412896837E-01  3.021280259872E-02
C48  2.364595448144E-01  3.875412896837E-01 -3.021280259872E-02
C49 -9.533271466395E-02 -4.766805863218E-01 -1.949487408890E-02
C50  9.533271466395E-02  4.766805863218E-01  1.949487408890E-02
C51  1.331858864527E-01 -4.788190193952E-01  1.059318172304E-01
C52 -1.331858864527E-01  4.788190193952E-01 -1.059318172304E-01
H53 -1.122629858880E-01  1.577576666313E-01  3.147699123951E-01
H54  1.122629858880E-01 -1.577576666313E-01 -3.147699123951E-01
H55 -2.203364265771E-02  3.602471809680E-01  4.466668435304E-01
H56  2.203364265771E-02 -3.602471809680E-01 -4.466668435304E-01
H57  3.339102288549E-01 -4.628473358390E-01  4.733840075920E-01
H58 -3.339102288549E-01  4.628473358390E-01 -4.733840075920E-01
H59 -3.982644022334E-01 -4.909395138083E-01  3.688487282795E-01
H60  3.982644022334E-01  4.909395138083E-01 -3.688487282795E-01
H61 -1.105245068096E-02  2.662785339283E-02  1.773357035176E-01
H62  1.105245068096E-02 -2.662785339283E-02 -1.773357035176E-01
H63 -2.951286847308E-01  3.741787417071E-01  2.320691119347E-01
H64  2.951286847308E-01 -3.741787417071E-01 -2.320691119347E-01
H65  9.047031968364E-02 -1.062576152279E-01  4.069926184379E-02
H66 -9.047031968364E-02  1.062576152279E-01 -4.069926184379E-02
H67 -1.926417266830E-01  2.401582580614E-01  9.565434222692E-02
H68  1.926417266830E-01 -2.401582580614E-01 -9.565434222692E-02
H69  4.152060713941E-01 -7.975295504443E-02  2.732919994973E-01
H70 -4.152060713941E-01  7.975295504443E-02 -2.732919994973E-01
H71  4.916372344076E-01 -1.417601055900E-03  4.246007217407E-01
H72 -4.916372344076E-01  1.417601055900E-03 -4.246007217407E-01
H73 -1.832656123739E-01 -8.927563991042E-02  4.928650548603E-01
H74  1.832656123739E-01  8.927563991042E-02 -4.928650548603E-01
H75  7.172353099463E-02 -2.449010709782E-01  4.078257554527E-01
H76 -7.172353099463E-02  2.449010709782E-01 -4.078257554527E-01
H77 -4.837353647078E-01 -2.178233506685E-01  1.368840503383E-01
H78  4.837353647078E-01  2.178233506685E-01 -1.368840503383E-01
H79  1.740490239589E-01 -3.804690412392E-01  2.717694572389E-01
H80 -1.740490239589E-01  3.804690412392E-01 -2.717694572389E-01
H81 -3.808056025441E-01 -3.520173806659E-01  6.392310107626E-04
H82  3.808056025441E-01  3.520173806659E-01 -6.392310107626E-04
H83  2.774552113069E-01  4.856715416105E-01  1.355585094747E-01
H84 -2.774552113069E-01 -4.856715416105E-01 -1.355585094747E-01


#===END

data_OPT_STEP_58

_symmetry_space_group_name_H-M 'P 1'
_cell_length_a      6.45920454
_cell_length_b      7.80816689
_cell_length_c     16.50167751
_cell_angle_alpha   98.621751
_cell_angle_beta   92.478446
_cell_angle_gamma   96.133054

loop_
_atom_site_label
_atom_site_fract_x
_atom_site_fract_y
_atom_site_fract_z
C1  4.409235133474E-02  2.349145975316E-01  3.264756693712E-01
C2 -4.409235133474E-02 -2.349145975316E-01 -3.264756693712E-01
C3  9.407238801218E-02  3.467497671251E-01  3.989465091047E-01
C4 -9.407238801218E-02 -3.467497671251E-01 -3.989465091047E-01
C5  2.975130303130E-01  4.470342563190E-01  4.143334304122E-01
C6 -2.975130303130E-01 -4.470342563190E-01 -4.143334304122E-01
C7  4.456476383765E-01  4.316404178119E-01  3.569333601150E-01
C8 -4.456476383765E-01 -4.316404178119E-01 -3.569333601150E-01
C9  4.006036112649E-01  3.153971685248E-01  2.794703244095E-01
C10 -4.006036112649E-01 -3.153971685248E-01 -2.794703244095E-01
C11  1.938875922823E-01  2.152574813630E-01  2.636921782245E-01
C12 -1.938875922823E-01 -2.152574813630E-01 -2.636921782245E-01
C13  1.459668449660E-01  1.030354879992E-01  1.893096571606E-01
C14 -1.459668449660E-01 -1.030354879992E-01 -1.893096571606E-01
C15  2.946782945286E-01  8.342083466986E-02  1.277266609997E-01
C16 -2.946782945286E-01 -8.342083466986E-02 -1.277266609997E-01
C17 -4.979779860968E-01  1.832381287984E-01  1.436581140027E-01
C18  4.979779860968E-01 -1.832381287984E-01 -1.436581140027E-01
C19 -4.520045444887E-01  2.978940216831E-01  2.199686326017E-01
C20  4.520045444887E-01 -2.978940216831E-01 -2.199686326017E-01
C21  2.475843317610E-01 -3.012585714549E-02  5.273139521950E-02
C22 -2.475843317610E-01  3.012585714549E-02 -5.273139521950E-02
C23  3.961890433799E-01 -4.987426543185E-02 -7.988158684676E-03
C24 -3.961890433799E-01  4.987426543185E-02  7.988158684676E-03
C25 -3.497759579556E-01  1.642061395686E-01  8.351981078808E-02
C26  3.497759579556E-01 -1.642061395686E-01 -8.351981078808E-02
C27 -4.417779551261E-01 -1.171639835863E-01  3.028626441699E-01
C28  4.417779551261E-01  1.171639835863E-01 -3.028626441699E-01
C29 -3.999372555743E-01 -7.536848289008E-02  3.863951281171E-01
C30  3.999372555743E-01  7.536848289008E-02 -3.863951281171E-01
C31 -2.135597456175E-01 -1.231885772293E-01  4.250969793631E-01
C32  2.135597456175E-01  1.231885772293E-01 -4.250969793631E-01
C33 -7.314123003244E-02 -2.091584625127E-01  3.786316739456E-01
C34  7.314123003244E-02  2.091584625127E-01 -3.786316739456E-01
C35 -1.097755060090E-01 -2.560421327455E-01  2.903049968601E-01
C36  1.097755060090E-01  2.560421327455E-01 -2.903049968601E-01
C37 -2.999669782858E-01 -2.097184603218E-01  2.514876799816E-01
C38  2.999669782858E-01  2.097184603218E-01 -2.514876799816E-01
C39 -3.393322752428E-01 -2.534044129695E-01  1.664490708347E-01
C40  3.393322752428E-01  2.534044129695E-01 -1.664490708347E-01
C41 -1.979097614492E-01 -3.434502502546E-01  1.160655716014E-01
C42  1.979097614492E-01  3.434502502546E-01 -1.160655716014E-01
C43 -7.340147937051E-03 -3.898200124639E-01  1.549742982814E-01
C44  7.340147937051E-03  3.898200124639E-01 -1.549742982814E-01
C45  3.025436281126E-02 -3.441863525272E-01  2.420356271061E-01
C46 -3.025436281126E-02  3.441863525272E-01 -2.420356271061E-01
C47 -2.364375640889E-01 -3.876045508823E-01  3.024209417749E-02
C48  2.364375640889E-01  3.876045508823E-01 -3.024209417749E-02
C49 -9.537076734198E-02 -4.767891774350E-01 -1.947345962366E-02
C50  9.537076734198E-02  4.767891774350E-01  1.947345962366E-02
C51  1.333007210829E-01 -4.785444503112E-01  1.058780613314E-01
C52 -1.333007210829E-01  4.785444503112E-01 -1.058780613314E-01
H53 -1.122503715141E-01  1.580447886288E-01  3.148141765125E-01
H54  1.122503715141E-01 -1.580447886288E-01 -3.148141765125E-01
H55 -2.194823559591E-02  3.604276502062E-01  4.466763345503E-01
H56  2.194823559591E-02 -3.604276502062E-01 -4.466763345503E-01
H57  3.340832584986E-01 -4.628156690325E-01  4.733262335974E-01
H58 -3.340832584986E-01  4.628156690325E-01 -4.733262335974E-01
H59 -3.980771391254E-01 -4.910443193510E-01  3.687679107645E-01
H60  3.980771391254E-01  4.910443193510E-01 -3.687679107645E-01
H61 -1.119380943995E-02  2.708605953670E-02  1.773322252023E-01
H62  1.119380943995E-02 -2.708605953670E-02 -1.773322252023E-01
H63 -2.949980642790E-01  3.740421888928E-01  2.319956308245E-01
H64  2.949980642790E-01 -3.740421888928E-01 -2.319956308245E-01
H65  9.042028506351E-02 -1.060534499128E-01  4.075718027839E-02
H66 -9.042028506351E-02  1.060534499128E-01 -4.075718027839E-02
H67 -1.925791193172E-01  2.400409187818E-01  9.557629738277E-02
H68  1.925791193172E-01 -2.400409187818E-01 -9.557629738277E-02
H69  4.148195493551E-01 -8.042404706146E-02  2.733486717600E-01
H70 -4.148195493551E-01  8.042404706146E-02 -2.733486717600E-01
H71  4.911381102381E-01 -2.069205283896E-03  4.246122628544E-01
H72 -4.911381102381E-01  2.069205283896E-03 -4.246122628544E-01
H73 -1.834295146993E-01 -8.931321224602E-02  4.927997135713E-01
H74  1.834295146993E-01  8.931321224602E-02 -4.927997135713E-01
H75  7.190418733461E-02 -2.443828497731E-01  4.077126625941E-01
H76 -7.190418733461E-02  2.443828497731E-01 -4.077126625941E-01
H77 -4.837646574024E-01 -2.180217652811E-01  1.369336733008E-01
H78  4.837646574024E-01  2.180217652811E-01 -1.369336733008E-01
H79  1.743493666773E-01 -3.798315098421E-01  2.716581658996E-01
H80 -1.743493666773E-01  3.798315098421E-01 -2.716581658996E-01
H81 -3.809071375933E-01 -3.523324764591E-01  7.102609103914E-04
H82  3.809071375933E-01  3.523324764591E-01 -7.102609103914E-04
H83  2.776018450110E-01  4.860570833594E-01  1.354667680674E-01
H84 -2.776018450110E-01 -4.860570833594E-01 -1.354667680674E-01


#===END

data_OPT_STEP_59

_symmetry_space_group_name_H-M 'P 1'
_cell_length_a      6.46388793
_cell_length_b      7.80171081
_cell_length_c     16.50279183
_cell_angle_alpha   98.628858
_cell_angle_beta   92.480514
_cell_angle_gamma   96.141170

loop_
_atom_site_label
_atom_site_fract_x
_atom_site_fract_y
_atom_site_fract_z
C1  4.416674919777E-02  2.349436786254E-01  3.264134416748E-01
C2 -4.416674919777E-02 -2.349436786254E-01 -3.264134416748E-01
C3  9.413401617288E-02  3.467401063794E-01  3.989272875378E-01
C4 -9.413401617288E-02 -3.467401063794E-01 -3.989272875378E-01
C5  2.975009729303E-01  4.470022286253E-01  4.143836037335E-01
C6 -2.975009729303E-01 -4.470022286253E-01 -4.143836037335E-01
C7  4.455252994280E-01  4.317040466710E-01  3.569880759689E-01
C8 -4.455252994280E-01 -4.317040466710E-01 -3.569880759689E-01
C9  4.005458032306E-01  3.154129395939E-01  2.795060125145E-01
C10 -4.005458032306E-01 -3.154129395939E-01 -2.795060125145E-01
C11  1.939329291793E-01  2.152507096972E-01  2.636664818500E-01
C12 -1.939329291793E-01 -2.152507096972E-01 -2.636664818500E-01
C13  1.460508548735E-01  1.030433842065E-01  1.892477006465E-01
C14 -1.460508548735E-01 -1.030433842065E-01 -1.892477006465E-01
C15  2.947278877823E-01  8.341263177537E-02  1.276986842268E-01
C16 -2.947278877823E-01 -8.341263177537E-02 -1.276986842268E-01
C17 -4.979976916298E-01  1.831866676329E-01  1.437092232809E-01
C18  4.979976916298E-01 -1.831866676329E-01 -1.437092232809E-01
C19 -4.521066178842E-01  2.979113535488E-01  2.200339193320E-01
C20  4.521066178842E-01 -2.979113535488E-01 -2.200339193320E-01
C21  2.477166529967E-01 -3.019629258383E-02  5.268511709157E-02
C22 -2.477166529967E-01  3.019629258383E-02 -5.268511709157E-02
C23  3.962650840595E-01 -4.992447112470E-02 -8.010249536899E-03
C24 -3.962650840595E-01  4.992447112470E-02  8.010249536899E-03
C25 -3.498947064762E-01  1.642482913923E-01  8.357644379447E-02
C26  3.498947064762E-01 -1.642482913923E-01 -8.357644379447E-02
C27 -4.417569502230E-01 -1.173713468240E-01  3.028869261269E-01
C28  4.417569502230E-01  1.173713468240E-01 -3.028869261269E-01
C29 -3.998310822599E-01 -7.536997086416E-02  3.864051916831E-01
C30  3.998310822599E-01  7.536997086416E-02 -3.864051916831E-01
C31 -2.134543259726E-01 -1.230165220732E-01  4.250938149500E-01
C32  2.134543259726E-01  1.230165220732E-01 -4.250938149500E-01
C33 -7.311225789741E-02 -2.090028605937E-01  3.786285726698E-01
C34  7.311225789741E-02  2.090028605937E-01 -3.786285726698E-01
C35 -1.097582392824E-01 -2.559822442069E-01  2.903082597277E-01
C36  1.097582392824E-01  2.559822442069E-01 -2.903082597277E-01
C37 -2.999582625782E-01 -2.098542084860E-01  2.515064542629E-01
C38  2.999582625782E-01  2.098542084860E-01 -2.515064542629E-01
C39 -3.392945106275E-01 -2.535720993274E-01  1.664696210565E-01
C40  3.392945106275E-01  2.535720993274E-01 -1.664696210565E-01
C41 -1.978600479809E-01 -3.434994359905E-01  1.160748425927E-01
C42  1.978600479809E-01  3.434994359905E-01 -1.160748425927E-01
C43 -7.321256869302E-03 -3.897337831993E-01  1.549714816115E-01
C44  7.321256869302E-03  3.897337831993E-01 -1.549714816115E-01
C45  3.025939114896E-02 -3.440477188105E-01  2.420290181578E-01
C46 -3.025939114896E-02  3.440477188105E-01 -2.420290181578E-01
C47 -2.363909154280E-01 -3.877269498342E-01  3.025609200291E-02
C48  2.363909154280E-01  3.877269498342E-01 -3.025609200291E-02
C49 -9.533754518191E-02 -4.768308641146E-01 -1.946865862825E-02
C50  9.533754518191E-02  4.768308641146E-01  1.946865862825E-02
C51  1.332871602353E-01 -4.784054356009E-01  1.058666602616E-01
C52 -1.332871602353E-01  4.784054356009E-01 -1.058666602616E-01
H53 -1.121150816984E-01  1.580900051855E-01  3.147053862711E-01
H54  1.121150816984E-01 -1.580900051855E-01 -3.147053862711E-01
H55 -2.184100363895E-02  3.604147434227E-01  4.466398967322E-01
H56  2.184100363895E-02 -3.604147434227E-01 -4.466398967322E-01
H57  3.340252530253E-01 -4.628045602021E-01  4.733885132125E-01
H58 -3.340252530253E-01  4.628045602021E-01 -4.733885132125E-01
H59 -3.981708017495E-01 -4.911527494021E-01  3.689063221018E-01
H60  3.981708017495E-01  4.911527494021E-01 -3.689063221018E-01
H61 -1.105848898592E-02  2.712040202568E-02  1.772165207124E-01
H62  1.105848898592E-02 -2.712040202568E-02 -1.772165207124E-01
H63 -2.951979102794E-01  3.741035205360E-01  2.320967847836E-01
H64  2.951979102794E-01 -3.741035205360E-01 -2.320967847836E-01
H65  9.054590413747E-02 -1.059805571861E-01  4.062815680136E-02
H66 -9.054590413747E-02  1.059805571861E-01 -4.062815680136E-02
H67 -1.927538744662E-01  2.400582925464E-01  9.568579505316E-02
H68  1.927538744662E-01 -2.400582925464E-01 -9.568579505316E-02
H69  4.147871269374E-01 -8.084072389261E-02  2.733830583448E-01
H70 -4.147871269374E-01  8.084072389261E-02 -2.733830583448E-01
H71  4.912260474158E-01 -2.161475729582E-03  4.246314751784E-01
H72 -4.912260474158E-01  2.161475729582E-03 -4.246314751784E-01
H73 -1.832715041183E-01 -8.900365087155E-02  4.927875529113E-01
H74  1.832715041183E-01  8.900365087155E-02 -4.927875529113E-01
H75  7.189938374595E-02 -2.441216248082E-01  4.077110547370E-01
H76 -7.189938374595E-02  2.441216248082E-01 -4.077110547370E-01
H77 -4.837624731069E-01 -2.183795261894E-01  1.369660213173E-01
H78  4.837624731069E-01  2.183795261894E-01 -1.369660213173E-01
H79  1.743675296041E-01 -3.795338541627E-01  2.716416739125E-01
H80 -1.743675296041E-01  3.795338541627E-01 -2.716416739125E-01
H81 -3.808352380139E-01 -3.525556479103E-01  7.307704168238E-04
H82  3.808352380139E-01  3.525556479103E-01 -7.307704168238E-04
H83  2.774782221729E-01  4.861711509598E-01  1.354546482341E-01
H84 -2.774782221729E-01 -4.861711509598E-01 -1.354546482341E-01


#===END

data_OPT_STEP_60

_symmetry_space_group_name_H-M 'P 1'
_cell_length_a      6.46502978
_cell_length_b      7.79801579
_cell_length_c     16.50339935
_cell_angle_alpha   98.587744
_cell_angle_beta   92.437915
_cell_angle_gamma   96.138521

loop_
_atom_site_label
_atom_site_fract_x
_atom_site_fract_y
_atom_site_fract_z
C1  4.431088990795E-02  2.350640723053E-01  3.264626886527E-01
C2 -4.431088990795E-02 -2.350640723053E-01 -3.264626886527E-01
C3  9.430619428802E-02  3.468278960737E-01  3.989413721746E-01
C4 -9.430619428802E-02 -3.468278960737E-01 -3.989413721746E-01
C5  2.976598465601E-01  4.470392362157E-01  4.143210900333E-01
C6 -2.976598465601E-01 -4.470392362157E-01 -4.143210900333E-01
C7  4.456828217981E-01  4.316425563034E-01  3.569037521709E-01
C8 -4.456828217981E-01 -4.316425563034E-01 -3.569037521709E-01
C9  4.006633780194E-01  3.154025256841E-01  2.794532087255E-01
C10 -4.006633780194E-01 -3.154025256841E-01 -2.794532087255E-01
C11  1.940320954739E-01  2.153633573145E-01  2.636774673339E-01
C12 -1.940320954739E-01 -2.153633573145E-01 -2.636774673339E-01
C13  1.461144654580E-01  1.032198882990E-01  1.892928197134E-01
C14 -1.461144654580E-01 -1.032198882990E-01 -1.892928197134E-01
C15  2.947879455673E-01  8.348969184178E-02  1.277262911259E-01
C16 -2.947879455673E-01 -8.348969184178E-02 -1.277262911259E-01
C17 -4.979603398521E-01  1.832048168855E-01  1.436523724885E-01
C18  4.979603398521E-01 -1.832048168855E-01 -1.436523724885E-01
C19 -4.520178225976E-01  2.978533144579E-01  2.199477449328E-01
C20  4.520178225976E-01 -2.978533144579E-01 -2.199477449328E-01
C21  2.477174917167E-01 -3.002735855166E-02  5.273926002151E-02
C22 -2.477174917167E-01  3.002735855166E-02 -5.273926002151E-02
C23  3.962469826568E-01 -4.984126974975E-02 -7.980763560469E-03
C24 -3.962469826568E-01  4.984126974975E-02  7.980763560469E-03
C25 -3.498495329420E-01  1.641361222867E-01  8.350559032936E-02
C26  3.498495329420E-01 -1.641361222867E-01 -8.350559032936E-02
C27 -4.416650894476E-01 -1.173677788372E-01  3.029239531524E-01
C28  4.416650894476E-01  1.173677788372E-01 -3.029239531524E-01
C29 -3.997243349326E-01 -7.535234877460E-02  3.864105426156E-01
C30  3.997243349326E-01  7.535234877460E-02 -3.864105426156E-01
C31 -2.132929177547E-01 -1.229166616418E-01  4.250364112268E-01
C32  2.132929177547E-01  1.229166616418E-01 -4.250364112268E-01
C33 -7.294957424547E-02 -2.088683360490E-01  3.785438789881E-01
C34  7.294957424547E-02  2.088683360490E-01 -3.785438789881E-01
C35 -1.096389374132E-01 -2.558933225343E-01  2.902584840894E-01
C36  1.096389374132E-01  2.558933225343E-01 -2.902584840894E-01
C37 -2.998619264021E-01 -2.098114911242E-01  2.515181246851E-01
C38  2.998619264021E-01  2.098114911242E-01 -2.515181246851E-01
C39 -3.392378170559E-01 -2.535665780583E-01  1.665163874671E-01
C40  3.392378170559E-01  2.535665780583E-01 -1.665163874671E-01
C41 -1.978306214323E-01 -3.435054616198E-01  1.160983447267E-01
C42  1.978306214323E-01  3.435054616198E-01 -1.160983447267E-01
C43 -7.242036216543E-03 -3.896621905989E-01  1.549304084626E-01
C44  7.242036216543E-03  3.896621905989E-01 -1.549304084626E-01
C45  3.037491671288E-02 -3.439414944859E-01  2.419534988096E-01
C46 -3.037491671288E-02  3.439414944859E-01 -2.419534988096E-01
C47 -2.363794675487E-01 -3.877389489834E-01  3.031224695488E-02
C48  2.363794675487E-01  3.877389489834E-01 -3.031224695488E-02
C49 -9.534026205604E-02 -4.768371870786E-01 -1.943820703297E-02
C50  9.534026205604E-02  4.768371870786E-01  1.943820703297E-02
C51  1.333205610705E-01 -4.783758847051E-01  1.058027905494E-01
C52 -1.333205610705E-01  4.783758847051E-01 -1.058027905494E-01
H53 -1.120697059592E-01  1.584535379351E-01  3.147638369025E-01
H54  1.120697059592E-01 -1.584535379351E-01 -3.147638369025E-01
H55 -2.168673931138E-02  3.605868300923E-01  4.466625019646E-01
H56  2.168673931138E-02 -3.605868300923E-01 -4.466625019646E-01
H57  3.342062862355E-01 -4.627950858913E-01  4.732985748781E-01
H58 -3.342062862355E-01  4.627950858913E-01 -4.732985748781E-01
H59 -3.980438905828E-01 -4.912143967051E-01  3.687546394860E-01
H60  3.980438905828E-01  4.912143967051E-01 -3.687546394860E-01
H61 -1.097774208331E-02  2.733567916839E-02  1.773214729306E-01
H62  1.097774208331E-02 -2.733567916839E-02 -1.773214729306E-01
H63 -2.950483199066E-01  3.738807035135E-01  2.319807575433E-01
H64  2.950483199066E-01 -3.738807035135E-01 -2.319807575433E-01
H65  9.054591113817E-02 -1.057409915027E-01  4.073687675763E-02
H66 -9.054591113817E-02  1.057409915027E-01 -4.073687675763E-02
H67 -1.926843039545E-01  2.398344975808E-01  9.557087600777E-02
H68  1.926843039545E-01 -2.398344975808E-01 -9.557087600777E-02
H69  4.147312160876E-01 -8.106393711651E-02  2.734765778299E-01
H70 -4.147312160876E-01  8.106393711651E-02 -2.734765778299E-01
H71  4.912852162506E-01 -2.192800340611E-03  4.246481564524E-01
H72 -4.912852162506E-01  2.192800340611E-03 -4.246481564524E-01
H73 -1.830699179042E-01 -8.886985675128E-02  4.927031751402E-01
H74  1.830699179042E-01  8.886985675128E-02 -4.927031751402E-01
H75  7.209702047278E-02 -2.439295290989E-01  4.075799425435E-01
H76 -7.209702047278E-02  2.439295290989E-01 -4.075799425435E-01
H77 -4.837386295956E-01 -2.184309946899E-01  1.370609472647E-01
H78  4.837386295956E-01  2.184309946899E-01 -1.370609472647E-01
H79  1.745274165604E-01 -3.793617471230E-01  2.715182809657E-01
H80 -1.745274165604E-01  3.793617471230E-01 -2.715182809657E-01
H81 -3.808439426063E-01 -3.526017846311E-01  8.343346304848E-04
H82  3.808439426063E-01  3.526017846311E-01 -8.343346304848E-04
H83  2.776168557541E-01  4.863512116718E-01  1.353351621196E-01
H84 -2.776168557541E-01 -4.863512116718E-01 -1.353351621196E-01


#===END

data_OPT_STEP_61

_symmetry_space_group_name_H-M 'P 1'
_cell_length_a      6.46622713
_cell_length_b      7.79633243
_cell_length_c     16.50305399
_cell_angle_alpha   98.583859
_cell_angle_beta   92.439309
_cell_angle_gamma   96.138778

loop_
_atom_site_label
_atom_site_fract_x
_atom_site_fract_y
_atom_site_fract_z
C1  4.433239083127E-02  2.350989101659E-01  3.264434637980E-01
C2 -4.433239083127E-02 -2.350989101659E-01 -3.264434637980E-01
C3  9.432441861754E-02  3.468450917554E-01  3.989312834130E-01
C4 -9.432441861754E-02 -3.468450917554E-01 -3.989312834130E-01
C5  2.976541779742E-01  4.470496548998E-01  4.143240623019E-01
C6 -2.976541779742E-01 -4.470496548998E-01 -4.143240623019E-01
C7  4.456718368302E-01  4.316382193048E-01  3.569158506480E-01
C8 -4.456718368302E-01 -4.316382193048E-01 -3.569158506480E-01
C9  4.006527699878E-01  3.154172960416E-01  2.794553961777E-01
C10 -4.006527699878E-01 -3.154172960416E-01 -2.794553961777E-01
C11  1.940538119343E-01  2.153709305703E-01  2.636704299884E-01
C12 -1.940538119343E-01 -2.153709305703E-01 -2.636704299884E-01
C13  1.461407470931E-01  1.032389436886E-01  1.892777724765E-01
C14 -1.461407470931E-01 -1.032389436886E-01 -1.892777724765E-01
C15  2.947965883010E-01  8.351123087081E-02  1.277157313413E-01
C16 -2.947965883010E-01 -8.351123087081E-02 -1.277157313413E-01
C17 -4.979672043823E-01  1.832050069197E-01  1.436578146401E-01
C18  4.979672043823E-01 -1.832050069197E-01 -1.436578146401E-01
C19 -4.520295776222E-01  2.978428582246E-01  2.199609892547E-01
C20  4.520295776222E-01 -2.978428582246E-01 -2.199609892547E-01
C21  2.477435919076E-01 -3.002071584747E-02  5.272723162754E-02
C22 -2.477435919076E-01  3.002071584747E-02 -5.272723162754E-02
C23  3.962606918700E-01 -4.984167450079E-02 -7.985962587809E-03
C24 -3.962606918700E-01  4.984167450079E-02  7.985962587809E-03
C25 -3.498768675992E-01  1.641449577084E-01  8.351375605937E-02
C26  3.498768675992E-01 -1.641449577084E-01 -8.351375605937E-02
C27 -4.416690603651E-01 -1.173543663207E-01  3.029117430608E-01
C28  4.416690603651E-01  1.173543663207E-01 -3.029117430608E-01
C29 -3.997842500851E-01 -7.539095061487E-02  3.864041184247E-01
C30  3.997842500851E-01  7.539095061487E-02 -3.864041184247E-01
C31 -2.133841376135E-01 -1.229503129375E-01  4.250344679952E-01
C32  2.133841376135E-01  1.229503129375E-01 -4.250344679952E-01
C33 -7.300578109945E-02 -2.088368096915E-01  3.785406936864E-01
C34  7.300578109945E-02  2.088368096915E-01 -3.785406936864E-01
C35 -1.096636077612E-01 -2.558476656992E-01  2.902529469500E-01
C36  1.096636077612E-01  2.558476656992E-01 -2.902529469500E-01
C37 -2.998631372636E-01 -2.097812568486E-01  2.515077866651E-01
C38  2.998631372636E-01  2.097812568486E-01 -2.515077866651E-01
C39 -3.392245631682E-01 -2.535531739826E-01  1.665047153324E-01
C40  3.392245631682E-01  2.535531739826E-01 -1.665047153324E-01
C41 -1.978201882603E-01 -3.434854450246E-01  1.160906377205E-01
C42  1.978201882602E-01  3.434854450246E-01 -1.160906377205E-01
C43 -7.284237656073E-03 -3.896667776510E-01  1.549309567681E-01
C44  7.284237656073E-03  3.896667776510E-01 -1.549309567681E-01
C45  3.032672451455E-02 -3.439173661442E-01  2.419536259720E-01
C46 -3.032672451455E-02  3.439173661442E-01 -2.419536259720E-01
C47 -2.363556390085E-01 -3.877403415884E-01  3.030384311380E-02
C48  2.363556390085E-01  3.877403415884E-01 -3.030384311380E-02
C49 -9.533244501263E-02 -4.768518911764E-01 -1.944077225825E-02
C50  9.533244501263E-02  4.768518911764E-01  1.944077225825E-02
C51  1.332731741819E-01 -4.783778597465E-01  1.058082772382E-01
C52 -1.332731741819E-01  4.783778597465E-01 -1.058082772382E-01
H53 -1.119816392283E-01  1.583979036375E-01  3.147568048829E-01
H54  1.119816392283E-01 -1.583979036375E-01 -3.147568048829E-01
H55 -2.165420453538E-02  3.605984632290E-01  4.466498077311E-01
H56  2.165420453538E-02 -3.605984632290E-01 -4.466498077311E-01
H57  3.341984687250E-01 -4.627952223969E-01  4.733083632332E-01
H58 -3.341984687250E-01  4.627952223969E-01 -4.733083632332E-01
H59 -3.981046209525E-01 -4.911652191036E-01  3.687629097914E-01
H60  3.981046209525E-01  4.911652191036E-01 -3.687629097914E-01
H61 -1.093432360166E-02  2.736859852741E-02  1.772961142410E-01
H62  1.093432360166E-02 -2.736859852741E-02 -1.772961142410E-01
H63 -2.950878721522E-01  3.738845872019E-01  2.319986778480E-01
H64  2.950878721522E-01 -3.738845872019E-01 -2.319986778480E-01
H65  9.060291667252E-02 -1.057505348826E-01  4.072166305389E-02
H66 -9.060291667252E-02  1.057505348826E-01 -4.072166305389E-02
H67 -1.927227918333E-01  2.398248012410E-01  9.559101322954E-02
H68  1.927227918333E-01 -2.398248012410E-01 -9.559101322954E-02
H69  4.147551506108E-01 -8.105168975700E-02  2.734619895402E-01
H70 -4.147551506108E-01  8.105168975700E-02 -2.734619895402E-01
H71  4.912242186609E-01 -2.260530217298E-03  4.246459516353E-01
H72 -4.912242186609E-01  2.260530217298E-03 -4.246459516353E-01
H73 -1.831831672723E-01 -8.890902990907E-02  4.927032114072E-01
H74  1.831831672723E-01  8.890902990907E-02 -4.927032114072E-01
H75  7.203764486572E-02 -2.438654647497E-01  4.075782411192E-01
H76 -7.203764486572E-02  2.438654647497E-01 -4.075782411192E-01
H77 -4.836912693266E-01 -2.184092969517E-01  1.370450809942E-01
H78  4.836912693266E-01  2.184092969517E-01 -1.370450809942E-01
H79  1.744530469342E-01 -3.793377494133E-01  2.715224363085E-01
H80 -1.744530469342E-01  3.793377494133E-01 -2.715224363085E-01
H81 -3.808086125615E-01 -3.526274240155E-01  8.234815915369E-04
H82  3.808086125615E-01  3.526274240155E-01 -8.234815915369E-04
H83  2.775781069290E-01  4.864009387469E-01  1.353422117074E-01
H84 -2.775781069290E-01 -4.864009387469E-01 -1.353422117074E-01


#===END

data_OPT_STEP_62

_symmetry_space_group_name_H-M 'P 1'
_cell_length_a      6.46682758
_cell_length_b      7.79489368
_cell_length_c     16.50356549
_cell_angle_alpha   98.577904
_cell_angle_beta   92.430166
_cell_angle_gamma   96.136330

loop_
_atom_site_label
_atom_site_fract_x
_atom_site_fract_y
_atom_site_fract_z
C1  4.433508835050E-02  2.351478324975E-01  3.264450784036E-01
C2 -4.433508835050E-02 -2.351478324975E-01 -3.264450784036E-01
C3  9.432799197047E-02  3.468702122254E-01  3.989310486857E-01
C4 -9.432799197047E-02 -3.468702122254E-01 -3.989310486857E-01
C5  2.976578054227E-01  4.470327670596E-01  4.143210466723E-01
C6 -2.976578054227E-01 -4.470327670596E-01 -4.143210466723E-01
C7  4.456707726738E-01  4.316149241743E-01  3.569093390079E-01
C8 -4.456707726738E-01 -4.316149241743E-01 -3.569093390079E-01
C9  4.006527070189E-01  3.154107650060E-01  2.794512121210E-01
C10 -4.006527070189E-01 -3.154107650060E-01 -2.794512121210E-01
C11  1.940505686180E-01  2.154107520707E-01  2.636686289419E-01
C12 -1.940505686180E-01 -2.154107520707E-01 -2.636686289419E-01
C13  1.461438824987E-01  1.032808789528E-01  1.892808239777E-01
C14 -1.461438824987E-01 -1.032808789528E-01 -1.892808239777E-01
C15  2.947937426712E-01  8.354182300047E-02  1.277151689742E-01
C16 -2.947937426712E-01 -8.354182300047E-02 -1.277151689742E-01
C17 -4.979739183755E-01  1.832055675046E-01  1.436515195088E-01
C18  4.979739183755E-01 -1.832055675046E-01 -1.436515195088E-01
C19 -4.520356928596E-01  2.978254108422E-01  2.199534576158E-01
C20  4.520356928596E-01 -2.978254108422E-01 -2.199534576158E-01
C21  2.477452179334E-01 -2.998564311783E-02  5.273129770987E-02
C22 -2.477452179334E-01  2.998564311783E-02 -5.273129770987E-02
C23  3.962620323871E-01 -4.982662919791E-02 -7.983136359313E-03
C24 -3.962620323871E-01  4.982662919791E-02  7.983136359313E-03
C25 -3.498839343969E-01  1.641271645776E-01  8.350577349473E-02
C26  3.498839343969E-01 -1.641271645776E-01 -8.350577349473E-02
C27 -4.416642171096E-01 -1.173250083553E-01  3.029194481072E-01
C28  4.416642171096E-01  1.173250083553E-01 -3.029194481072E-01
C29 -3.997997510491E-01 -7.538434124920E-02  3.864060576803E-01
C30  3.997997510491E-01  7.538434124920E-02 -3.864060576803E-01
C31 -2.134228118194E-01 -1.229686847641E-01  4.250246739963E-01
C32  2.134228118194E-01  1.229686847641E-01 -4.250246739963E-01
C33 -7.303945295250E-02 -2.088526026820E-01  3.785248432074E-01
C34  7.303945295250E-02  2.088526026820E-01 -3.785248432074E-01
C35 -1.096783781459E-01 -2.558429677940E-01  2.902429585335E-01
C36  1.096783781459E-01  2.558429677940E-01 -2.902429585335E-01
C37 -2.998523813070E-01 -2.097459219378E-01  2.515095637113E-01
C38  2.998523813070E-01  2.097459219378E-01 -2.515095637113E-01
C39 -3.392072691059E-01 -2.535190236535E-01  1.665131308383E-01
C40  3.392072691059E-01  2.535190236535E-01 -1.665131308383E-01
C41 -1.978143484192E-01 -3.434695034144E-01  1.160948820268E-01
C42  1.978143484192E-01  3.434695034144E-01 -1.160948820268E-01
C43 -7.279239484795E-03 -3.896440708933E-01  1.549211165918E-01
C44  7.279239484795E-03  3.896440708933E-01 -1.549211165918E-01
C45  3.031645566544E-02 -3.439078217868E-01  2.419375360165E-01
C46 -3.031645566544E-02  3.439078217868E-01 -2.419375360165E-01
C47 -2.363476548140E-01 -3.877318160370E-01  3.031539803956E-02
C48  2.363476548140E-01  3.877318160370E-01 -3.031539803956E-02
C49 -9.532627584641E-02 -4.768469063386E-01 -1.943440342905E-02
C50  9.532627584641E-02  4.768469063386E-01  1.943440342905E-02
C51  1.332720258345E-01 -4.783660139717E-01  1.057937159835E-01
C52 -1.332720258345E-01  4.783660139717E-01 -1.057937159835E-01
H53 -1.119657916654E-01  1.584466361282E-01  3.147662006440E-01
H54  1.119657916654E-01 -1.584466361282E-01 -3.147662006440E-01
H55 -2.164367345581E-02  3.606255682658E-01  4.466530395460E-01
H56  2.164367345581E-02 -3.606255682658E-01 -4.466530395460E-01
H57  3.342047145526E-01 -4.628355479428E-01  4.733071899292E-01
H58 -3.342047145526E-01  4.628355479428E-01 -4.733071899292E-01
H59 -3.981037164244E-01 -4.912227822367E-01  3.687566389083E-01
H60  3.981037164244E-01  4.912227822367E-01 -3.687566389083E-01
H61 -1.093654689391E-02  2.745760661557E-02  1.772974948015E-01
H62  1.093654689391E-02 -2.745760661557E-02 -1.772974948015E-01
H63 -2.951036855870E-01  3.738590647210E-01  2.319848707231E-01
H64  2.951036855870E-01 -3.738590647210E-01 -2.319848707231E-01
H65  9.062255925214E-02 -1.057179710599E-01  4.073572489325E-02
H66 -9.062255925214E-02  1.057179710599E-01 -4.073572489325E-02
H67 -1.927454274629E-01  2.398053804197E-01  9.557427184101E-02
H68  1.927454274629E-01 -2.398053804197E-01 -9.557427184101E-02
H69  4.148149299386E-01 -8.095718531960E-02  2.734763891764E-01
H70 -4.148149299386E-01  8.095718531960E-02 -2.734763891764E-01
H71  4.912090707767E-01 -2.264963811706E-03  4.246560224693E-01
H72 -4.912090707767E-01  2.264963811706E-03 -4.246560224693E-01
H73 -1.832436018812E-01 -8.894642529656E-02  4.926900218145E-01
H74  1.832436018812E-01  8.894642529656E-02 -4.926900218145E-01
H75  7.199912529156E-02 -2.438812362605E-01  4.075517943546E-01
H76 -7.199912529156E-02  2.438812362605E-01 -4.075517943546E-01
H77 -4.836616946521E-01 -2.183693597166E-01  1.370638214309E-01
H78  4.836616946521E-01  2.183693597166E-01 -1.370638214309E-01
H79  1.744136367555E-01 -3.793631705245E-01  2.714984262946E-01
H80 -1.744136367555E-01  3.793631705245E-01 -2.714984262946E-01
H81 -3.807915525428E-01 -3.526163389165E-01  8.455484977970E-04
H82  3.807915525428E-01  3.526163389165E-01 -8.455484977970E-04
H83  2.775503011252E-01  4.863830048857E-01  1.353201569010E-01
H84 -2.775503011252E-01 -4.863830048857E-01 -1.353201569010E-01


#===END

data_OPT_STEP_63

_symmetry_space_group_name_H-M 'P 1'
_cell_length_a      6.46955131
_cell_length_b      7.79161498
_cell_length_c     16.50223078
_cell_angle_alpha   98.572334
_cell_angle_beta   92.435156
_cell_angle_gamma   96.136513

loop_
_atom_site_label
_atom_site_fract_x
_atom_site_fract_y
_atom_site_fract_z
C1  4.436348952707E-02  2.351606448719E-01  3.264180368934E-01
C2 -4.436348952707E-02 -2.351606448719E-01 -3.264180368934E-01
C3  9.431722597618E-02  3.468887948940E-01  3.989195206583E-01
C4 -9.431722597618E-02 -3.468887948940E-01 -3.989195206583E-01
C5  2.975899730463E-01  4.470362977954E-01  4.143456030056E-01
C6 -2.975899730463E-01 -4.470362977954E-01 -4.143456030056E-01
C7  4.455678253000E-01  4.316311790585E-01  3.569446861901E-01
C8 -4.455678253000E-01 -4.316311790585E-01 -3.569446861901E-01
C9  4.005869538913E-01  3.154222345682E-01  2.794710693818E-01
C10 -4.005869538913E-01 -3.154222345682E-01 -2.794710693818E-01
C11  1.940598823466E-01  2.154104823961E-01  2.636588058209E-01
C12 -1.940598823466E-01 -2.154104823961E-01 -2.636588058209E-01
C13  1.461965957877E-01  1.032690345455E-01  1.892556712201E-01
C14 -1.461965957877E-01 -1.032690345455E-01 -1.892556712201E-01
C15  2.948228000849E-01  8.352547487422E-02  1.277052636010E-01
C16 -2.948228000849E-01 -8.352547487422E-02 -1.277052636010E-01
C17 -4.980223209738E-01  1.832086452813E-01  1.436703437458E-01
C18  4.980223209738E-01 -1.832086452813E-01 -1.436703437458E-01
C19 -4.521296592143E-01  2.978396786671E-01  2.199868137965E-01
C20  4.521296592143E-01 -2.978396786671E-01 -2.199868137965E-01
C21  2.478069263904E-01 -2.999359517819E-02  5.270160516008E-02
C22 -2.478069263904E-01  2.999359517819E-02 -5.270160516008E-02
C23  3.962856353404E-01 -4.980992318762E-02 -8.004352994907E-03
C24 -3.962856353404E-01  4.980992318762E-02  8.004352994907E-03
C25 -3.499453369520E-01  1.641117357435E-01  8.354390302697E-02
C26  3.499453369520E-01 -1.641117357435E-01 -8.354390302697E-02
C27 -4.415820879690E-01 -1.173047265713E-01  3.029155156680E-01
C28  4.415820879690E-01  1.173047265713E-01 -3.029155156680E-01
C29 -3.997318489003E-01 -7.533647012540E-02  3.864075713007E-01
C30  3.997318489003E-01  7.533647012540E-02 -3.864075713007E-01
C31 -2.134224631386E-01 -1.229191529922E-01  4.250380825751E-01
C32  2.134224631386E-01  1.229191529922E-01 -4.250380825751E-01
C33 -7.306442905868E-02 -2.087947726574E-01  3.785418061321E-01
C34  7.306442905868E-02  2.087947726574E-01 -3.785418061321E-01
C35 -1.096808629109E-01 -2.557991648282E-01  2.902535137986E-01
C36  1.096808629109E-01  2.557991648282E-01 -2.902535137986E-01
C37 -2.998033752631E-01 -2.097267098243E-01  2.515102158093E-01
C38  2.998033752631E-01  2.097267098243E-01 -2.515102158093E-01
C39 -3.391556735945E-01 -2.535473350853E-01  1.665090356739E-01
C40  3.391556735945E-01  2.535473350853E-01 -1.665090356739E-01
C41 -1.977856022924E-01 -3.434813737448E-01  1.160938669995E-01
C42  1.977856022924E-01  3.434813737448E-01 -1.160938669995E-01
C43 -7.338853497400E-03 -3.896837358549E-01  1.549333726217E-01
C44  7.338853497400E-03  3.896837358549E-01 -1.549333726217E-01
C45  3.025120655837E-02 -3.439098330083E-01  2.419546943778E-01
C46 -3.025120655837E-02  3.439098330083E-01 -2.419546943778E-01
C47 -2.363019229639E-01 -3.877664756473E-01  3.030818888187E-02
C48  2.363019229639E-01  3.877664756473E-01 -3.030818888187E-02
C49 -9.531282752202E-02 -4.768770569009E-01 -1.943822997072E-02
C50  9.531282752202E-02  4.768770569009E-01  1.943822997072E-02
C51  1.332204121738E-01 -4.783463563873E-01  1.058056661270E-01
C52 -1.332204121738E-01  4.783463563873E-01 -1.058056661270E-01
H53 -1.119068304121E-01  1.584814554165E-01  3.147078892687E-01
H54  1.119068304121E-01 -1.584814554165E-01 -3.147078892687E-01
H55 -2.164012468165E-02  3.606569759630E-01  4.466272633595E-01
H56  2.164012468165E-02 -3.606569759630E-01 -4.466272633595E-01
H57  3.341084722830E-01 -4.628299629344E-01  4.733465600088E-01
H58 -3.341084722830E-01  4.628299629344E-01 -4.733465600088E-01
H59 -3.982503486200E-01 -4.912193374248E-01  3.688201958078E-01
H60  3.982503486200E-01  4.912193374248E-01 -3.688201958078E-01
H61 -1.082434630434E-02  2.743513390583E-02  1.772501828879E-01
H62  1.082434630434E-02 -2.743513390583E-02 -1.772501828879E-01
H63 -2.952314973255E-01  3.738587166150E-01  2.320495878059E-01
H64  2.952314973255E-01 -3.738587166150E-01 -2.320495878059E-01
H65  9.073709606705E-02 -1.057305874809E-01  4.068156799554E-02
H66 -9.073709606705E-02  1.057305874809E-01 -4.068156799554E-02
H67 -1.928724035020E-01  2.398163533507E-01  9.563184487688E-02
H68  1.928724035020E-01 -2.398163533507E-01 -9.563184487688E-02
H69  4.149763594389E-01 -8.091236301125E-02  2.734624270243E-01
H70 -4.149763594389E-01  8.091236301125E-02 -2.734624270243E-01
H71  4.913153042483E-01 -2.211008060920E-03  4.246583998287E-01
H72 -4.913153042483E-01  2.211008060920E-03 -4.246583998287E-01
H73 -1.832841024870E-01 -8.891327730392E-02  4.927115949083E-01
H74  1.832841024870E-01  8.891327730392E-02 -4.927115949083E-01
H75  7.192613224129E-02 -2.438095573109E-01  4.075797619424E-01
H76 -7.192613224129E-02  2.438095573109E-01 -4.075797619424E-01
H77 -4.835633083205E-01 -2.184166585795E-01  1.370522069623E-01
H78  4.835633083205E-01  2.184166585795E-01 -1.370522069623E-01
H79  1.742832317467E-01 -3.793794912089E-01  2.715265810396E-01
H80 -1.742832317467E-01  3.793794912089E-01 -2.715265810396E-01
H81 -3.806931770760E-01 -3.526592911780E-01  8.305404243229E-04
H82  3.806931770760E-01  3.526592911780E-01 -8.305404243230E-04
H83  2.774250599760E-01  4.863778882650E-01  1.353441644451E-01
H84 -2.774250599760E-01 -4.863778882650E-01 -1.353441644451E-01


#===END

data_OPT_STEP_64

_symmetry_space_group_name_H-M 'P 1'
_cell_length_a      6.47002363
_cell_length_b      7.78973775
_cell_length_c     16.50294949
_cell_angle_alpha   98.554220
_cell_angle_beta   92.413105
_cell_angle_gamma   96.131477

loop_
_atom_site_label
_atom_site_fract_x
_atom_site_fract_y
_atom_site_fract_z
C1  4.439043179620E-02  2.352151846510E-01  3.264407555699E-01
C2 -4.439043179620E-02 -2.352151846510E-01 -3.264407555699E-01
C3  9.433502538277E-02  3.469435007379E-01  3.989195546114E-01
C4 -9.433502538277E-02 -3.469435007379E-01 -3.989195546114E-01
C5  2.976319834590E-01  4.469929284943E-01  4.143242536641E-01
C6 -2.976319834590E-01 -4.469929284943E-01 -4.143242536641E-01
C7  4.456184131420E-01  4.315416171822E-01  3.569148357788E-01
C8 -4.456184131420E-01 -4.315416171822E-01 -3.569148357788E-01
C9  4.006293524750E-01  3.153628038689E-01  2.794567951032E-01
C10 -4.006293524750E-01 -3.153628038689E-01 -2.794567951032E-01
C11  1.940817094634E-01  2.154452356403E-01  2.636676999821E-01
C12 -1.940817094634E-01 -2.154452356403E-01 -2.636676999821E-01
C13  1.461965600793E-01  1.033643515919E-01  1.892733630474E-01
C14 -1.461965600793E-01 -1.033643515919E-01 -1.892733630474E-01
C15  2.948148442183E-01  8.359543180571E-02  1.277090966089E-01
C16 -2.948148442183E-01 -8.359543180571E-02 -1.277090966089E-01
C17 -4.979964198469E-01  1.831609161670E-01  1.436557381091E-01
C18  4.979964198469E-01 -1.831609161670E-01 -1.436557381091E-01
C19 -4.520865989572E-01  2.977429479770E-01  2.199609518401E-01
C20  4.520865989572E-01 -2.977429479770E-01 -2.199609518401E-01
C21  2.478089396051E-01 -2.992765608738E-02  5.272988863041E-02
C22 -2.478089396051E-01  2.992765608738E-02 -5.272988863041E-02
C23  3.963055690892E-01 -4.981648153563E-02 -7.978567218936E-03
C24 -3.963055690892E-01  4.981648153563E-02  7.978567218936E-03
C25 -3.499458490142E-01  1.640734063498E-01  8.350567170666E-02
C26  3.499458490142E-01 -1.640734063498E-01 -8.350567170666E-02
C27 -4.414803965768E-01 -1.172718647509E-01  3.029529433077E-01
C28  4.414803965768E-01  1.172718647509E-01 -3.029529433077E-01
C29 -3.996285236799E-01 -7.533393235843E-02  3.864280599455E-01
C30  3.996285236799E-01  7.533393235843E-02 -3.864280599455E-01
C31 -2.133344612658E-01 -1.229644042255E-01  4.250244913103E-01
C32  2.133344612658E-01  1.229644042255E-01 -4.250244913103E-01
C33 -7.299719717534E-02 -2.088588619420E-01  3.785111560267E-01
C34  7.299719717534E-02  2.088588619420E-01 -3.785111560267E-01
C35 -1.096091917216E-01 -2.558162495776E-01  2.902374311250E-01
C36  1.096091917216E-01  2.558162495776E-01 -2.902374311250E-01
C37 -2.997240957868E-01 -2.097081944037E-01  2.515313757003E-01
C38  2.997240957868E-01  2.097081944037E-01 -2.515313757003E-01
C39 -3.390854713283E-01 -2.535065961625E-01  1.665471414198E-01
C40  3.390854713283E-01  2.535065961625E-01 -1.665471414198E-01
C41 -1.977275403616E-01 -3.434402630324E-01  1.161131741231E-01
C42  1.977275403616E-01  3.434402630324E-01 -1.161131741231E-01
C43 -7.253527771258E-03 -3.896299732610E-01  1.549113376303E-01
C44  7.253527771258E-03  3.896299732610E-01 -1.549113376303E-01
C45  3.031992523169E-02 -3.439204070732E-01  2.419187551654E-01
C46 -3.031992523169E-02  3.439204070732E-01 -2.419187551654E-01
C47 -2.362866982931E-01 -3.877486283395E-01  3.034734329726E-02
C48  2.362866982931E-01  3.877486283395E-01 -3.034734329726E-02
C49 -9.530819928921E-02 -4.768564281540E-01 -1.941926999530E-02
C50  9.530819928921E-02  4.768564281540E-01  1.941926999530E-02
C51  1.332591698018E-01 -4.783461834203E-01  1.057671210051E-01
C52 -1.332591698018E-01  4.783461834203E-01 -1.057671210051E-01
H53 -1.118836289005E-01  1.585652891774E-01  3.147530546822E-01
H54  1.118836289005E-01 -1.585652891774E-01 -3.147530546822E-01
H55 -2.164056390329E-02  3.607710175547E-01  4.466272279448E-01
H56  2.164056390329E-02 -3.607710175547E-01 -4.466272279448E-01
H57  3.341462454348E-01 -4.628861563185E-01  4.733135672489E-01
H58 -3.341462454348E-01  4.628861563185E-01 -4.733135672489E-01
H59 -3.981994567790E-01 -4.913529389614E-01  3.687698134776E-01
H60  3.981994567790E-01  4.913529389614E-01 -3.687698134776E-01
H61 -1.083764291098E-02  2.760722223815E-02  1.772830332818E-01
H62  1.083764291098E-02 -2.760722223815E-02 -1.772830332818E-01
H63 -2.951779668407E-01  3.737196399337E-01  2.320031330066E-01
H64  2.951779668407E-01 -3.737196399337E-01 -2.320031330066E-01
H65  9.073950730025E-02 -1.056229775650E-01  4.073292886352E-02
H66 -9.073950730025E-02  1.056229775650E-01 -4.073292886352E-02
H67 -1.928820017237E-01  2.397504476054E-01  9.556648333597E-02
H68  1.928820017237E-01 -2.397504476054E-01 -9.556648333597E-02
H69  4.151098369509E-01 -8.083199157449E-02  2.735256702486E-01
H70 -4.151098369509E-01  8.083199157449E-02 -2.735256702486E-01
H71  4.914603657669E-01 -2.148650756822E-03  4.246868180706E-01
H72 -4.914603657669E-01  2.148650756822E-03 -4.246868180706E-01
H73 -1.831860584522E-01 -8.896523462976E-02  4.926856497274E-01
H74  1.831860584522E-01  8.896523462976E-02 -4.926856497274E-01
H75  7.199873898435E-02 -2.438829507226E-01  4.075203524399E-01
H76 -7.199873898435E-02  2.438829507226E-01 -4.075203524399E-01
H77 -4.834840588614E-01 -2.183554284206E-01  1.371187202637E-01
H78  4.834840588614E-01  2.183554284206E-01 -1.371187202637E-01
H79  1.743352120972E-01 -3.794318911796E-01  2.714649538828E-01
H80 -1.743352120972E-01  3.794318911796E-01 -2.714649538828E-01
H81 -3.806885161246E-01 -3.526466372801E-01  9.007564348378E-04
H82  3.806885161246E-01  3.526466372801E-01 -9.007564348378E-04
H83  2.774561636337E-01  4.863510799934E-01  1.352786774082E-01
H84 -2.774561636337E-01 -4.863510799934E-01 -1.352786774082E-01


#===END

data_OPT_STEP_65

_symmetry_space_group_name_H-M 'P 1'
_cell_length_a      6.46992367
_cell_length_b      7.79099517
_cell_length_c     16.50214923
_cell_angle_alpha   98.567793
_cell_angle_beta   92.431414
_cell_angle_gamma   96.135734

loop_
_atom_site_label
_atom_site_fract_x
_atom_site_fract_y
_atom_site_fract_z
C1  4.437530327529E-02  2.351700567539E-01  3.264202741471E-01
C2 -4.437530327529E-02 -2.351700567539E-01 -3.264202741471E-01
C3  9.431874634937E-02  3.469085272272E-01  3.989164407675E-01
C4 -9.431874634937E-02 -3.469085272272E-01 -3.989164407675E-01
C5  2.975915258726E-01  4.470325184703E-01  4.143419459983E-01
C6 -2.975915258726E-01 -4.470325184703E-01 -4.143419459983E-01
C7  4.455716314263E-01  4.316113684117E-01  3.569422322600E-01
C8 -4.455716314263E-01 -4.316113684117E-01 -3.569422322600E-01
C9  4.005946370204E-01  3.154036056219E-01  2.794714267494E-01
C10 -4.005946370204E-01 -3.154036056219E-01 -2.794714267494E-01
C11  1.940660722413E-01  2.154192738523E-01  2.636589145913E-01
C12 -1.940660722413E-01 -2.154192738523E-01 -2.636589145913E-01
C13  1.461990329080E-01  1.032965126706E-01  1.892545813042E-01
C14 -1.461990329080E-01 -1.032965126706E-01 -1.892545813042E-01
C15  2.948198529296E-01  8.354821388840E-02  1.277026356182E-01
C16 -2.948198529296E-01 -8.354821388840E-02 -1.277026356182E-01
C17 -4.980192100976E-01  1.831960109751E-01  1.436696174239E-01
C18  4.980192100976E-01 -1.831960109751E-01 -1.436696174239E-01
C19 -4.521238125554E-01  2.978115066156E-01  2.199866349329E-01
C20  4.521238125554E-01 -2.978115066156E-01 -2.199866349329E-01
C21  2.478141658715E-01 -2.997996587296E-02  5.270450216963E-02
C22 -2.478141658715E-01  2.997996587296E-02 -5.270450216963E-02
C23  3.962980440562E-01 -4.981956713933E-02 -7.998401910624E-03
C24 -3.962980440562E-01  4.981956713933E-02  7.998401910624E-03
C25 -3.499556082658E-01  1.641101179905E-01  8.353740550632E-02
C26  3.499556082658E-01 -1.641101179905E-01 -8.353740550632E-02
C27 -4.415381875489E-01 -1.172926988752E-01  3.029236119566E-01
C28  4.415381875489E-01  1.172926988752E-01 -3.029236119566E-01
C29 -3.996931373191E-01 -7.533631530428E-02  3.864135072016E-01
C30  3.996931373191E-01  7.533631530428E-02 -3.864135072016E-01
C31 -2.133973802847E-01 -1.229331731466E-01  4.250387153415E-01
C32  2.133973802847E-01  1.229331731466E-01 -4.250387153415E-01
C33 -7.305273113160E-02 -2.088171699223E-01  3.785395013662E-01
C34  7.305273113160E-02  2.088171699223E-01 -3.785395013662E-01
C35 -1.096616692645E-01 -2.558031810667E-01  2.902524974462E-01
C36  1.096616692645E-01  2.558031810667E-01 -2.902524974462E-01
C37 -2.997708032818E-01 -2.097174556013E-01  2.515152850049E-01
C38  2.997708032818E-01  2.097174556013E-01 -2.515152850049E-01
C39 -3.391219222910E-01 -2.535319208129E-01  1.665164850759E-01
C40  3.391219222910E-01  2.535319208129E-01 -1.665164850759E-01
C41 -1.977609332387E-01 -3.434662469892E-01  1.160976950282E-01
C42  1.977609332387E-01  3.434662469892E-01 -1.160976950282E-01
C43 -7.307692082044E-03 -3.896537652753E-01  1.549290114936E-01
C44  7.307692082044E-03  3.896537652753E-01 -1.549290114936E-01
C45  3.026918274357E-02 -3.439056097028E-01  2.419492985276E-01
C46 -3.026918274357E-02  3.439056097028E-01 -2.419492985276E-01
C47 -2.362892273345E-01 -3.877633237334E-01  3.031556201329E-02
C48  2.362892273345E-01  3.877633237334E-01 -3.031556201329E-02
C49 -9.530492006646E-02 -4.768681584155E-01 -1.943520979502E-02
C50  9.530492006646E-02  4.768681584155E-01  1.943520979502E-02
C51  1.332274399108E-01 -4.783405398214E-01  1.057989388669E-01
C52 -1.332274399108E-01  4.783405398214E-01 -1.057989388669E-01
H53 -1.118885257437E-01  1.584887132736E-01  3.147135956299E-01
H54  1.118885257437E-01 -1.584887132736E-01 -3.147135956299E-01
H55 -2.164470930809E-02  3.606984580324E-01  4.466207610792E-01
H56  2.164470930809E-02 -3.606984580324E-01 -4.466207610792E-01
H57  3.341040450866E-01 -4.628326915121E-01  4.733415520100E-01
H58 -3.341040450866E-01  4.628326915121E-01 -4.733415520100E-01
H59 -3.982549737318E-01 -4.912431101310E-01  3.688150522069E-01
H60  3.982549737318E-01  4.912431101310E-01 -3.688150522069E-01
H61 -1.082130890203E-02  2.748446249122E-02  1.772482963813E-01
H62  1.082130890203E-02 -2.748446249122E-02 -1.772482963813E-01
H63 -2.952277780346E-01  3.738244994109E-01  2.320478389017E-01
H64  2.952277780346E-01 -3.738244994109E-01 -2.320478389017E-01
H65  9.075068284308E-02 -1.057099103167E-01  4.068687886959E-02
H66 -9.075068284308E-02  1.057099103167E-01 -4.068687886959E-02
H67 -1.928929188796E-01  2.398139319497E-01  9.562117820338E-02
H68  1.928929188796E-01 -2.398139319497E-01 -9.562117820338E-02
H69  4.150384438144E-01 -8.088556646288E-02  2.734745660873E-01
H70 -4.150384438144E-01  8.088556646288E-02 -2.734745660873E-01
H71  4.913726162942E-01 -2.190157952882E-03  4.246653648347E-01
H72 -4.913726162942E-01  2.190157952882E-03 -4.246653648347E-01
H73 -1.832579946642E-01 -8.892817497854E-02  4.927107385763E-01
H74  1.832579946642E-01  8.892817497854E-02 -4.927107385763E-01
H75  7.193424952994E-02 -2.438321334980E-01  4.075727000704E-01
H76 -7.193424952994E-02  2.438321334980E-01 -4.075727000704E-01
H77 -4.835203058638E-01 -2.183972406383E-01  1.370645170659E-01
H78  4.835203058638E-01  2.183972406383E-01 -1.370645170659E-01
H79  1.742890466883E-01 -3.793875814304E-01  2.715175091177E-01
H80 -1.742890466883E-01  3.793875814304E-01 -2.715175091177E-01
H81 -3.806798569854E-01 -3.526638256789E-01  8.438476227372E-04
H82  3.806798569854E-01  3.526638256789E-01 -8.438476227372E-04
H83  2.774232910197E-01  4.863770021536E-01  1.353333367694E-01
H84 -2.774232910197E-01 -4.863770021536E-01 -1.353333367694E-01


#===END

data_OPT_STEP_66

_symmetry_space_group_name_H-M 'P 1'
_cell_length_a      6.47061610
_cell_length_b      7.79025847
_cell_length_c     16.50188367
_cell_angle_alpha   98.566069
_cell_angle_beta   92.433177
_cell_angle_gamma   96.135302

loop_
_atom_site_label
_atom_site_fract_x
_atom_site_fract_y
_atom_site_fract_z
C1  4.438052164943E-02  2.351651686984E-01  3.264072451784E-01
C2 -4.438052164943E-02 -2.351651686984E-01 -3.264072451784E-01
C3  9.432206510769E-02  3.468868636842E-01  3.989107576859E-01
C4 -9.432206510769E-02 -3.468868636842E-01 -3.989107576859E-01
C5  2.975736163472E-01  4.470163752717E-01  4.143437231039E-01
C6 -2.975736163472E-01 -4.470163752717E-01 -4.143437231039E-01
C7  4.455457627177E-01  4.315991171779E-01  3.569482725963E-01
C8 -4.455457627177E-01 -4.315991171779E-01 -3.569482725963E-01
C9  4.005825607535E-01  3.153864494220E-01  2.794755911968E-01
C10 -4.005825607535E-01 -3.153864494220E-01 -2.794755911968E-01
C11  1.940669622253E-01  2.154127507897E-01  2.636518274280E-01
C12 -1.940669622253E-01 -2.154127507897E-01 -2.636518274280E-01
C13  1.462123146745E-01  1.032914202637E-01  1.892442655376E-01
C14 -1.462123146745E-01 -1.032914202637E-01 -1.892442655376E-01
C15  2.948275381147E-01  8.354199065847E-02  1.276980438612E-01
C16 -2.948275381147E-01 -8.354199065847E-02 -1.276980438612E-01
C17 -4.980387844234E-01  1.832049406762E-01  1.436696224970E-01
C18  4.980387844234E-01 -1.832049406762E-01 -1.436696224970E-01
C19 -4.521474968675E-01  2.978057257967E-01  2.199930294428E-01
C20  4.521474968675E-01 -2.978057257967E-01 -2.199930294428E-01
C21  2.478334952622E-01 -2.998681103023E-02  5.269711921969E-02
C22 -2.478334952622E-01  2.998681103023E-02 -5.269711921969E-02
C23  3.963044955970E-01 -4.981440222601E-02 -8.003877829439E-03
C24 -3.963044955970E-01  4.981440222601E-02  8.003877829439E-03
C25 -3.499825408226E-01  1.641225761558E-01  8.354155390253E-02
C26  3.499825408226E-01 -1.641225761558E-01 -8.354155390253E-02
C27 -4.415226761813E-01 -1.173031046776E-01  3.029226584697E-01
C28  4.415226761813E-01  1.173031046776E-01 -3.029226584697E-01
C29 -3.996704071512E-01 -7.533212563781E-02  3.864128001942E-01
C30  3.996704071512E-01  7.533212563781E-02 -3.864128001942E-01
C31 -2.133839515450E-01 -1.229189163967E-01  4.250387487746E-01
C32  2.133839515450E-01  1.229189163967E-01 -4.250387487746E-01
C33 -7.306955650806E-02 -2.088271334467E-01  3.785417793850E-01
C34  7.306955650806E-02  2.088271334467E-01 -3.785417793850E-01
C35 -1.096897548962E-01 -2.558332983369E-01  2.902552251021E-01
C36  1.096897548962E-01  2.558332983369E-01 -2.902552251021E-01
C37 -2.997646474147E-01 -2.097235664785E-01  2.515143721785E-01
C38  2.997646474147E-01  2.097235664785E-01 -2.515143721785E-01
C39 -3.391066740073E-01 -2.535360308593E-01  1.665139233794E-01
C40  3.391066740073E-01  2.535360308593E-01 -1.665139233794E-01
C41 -1.977663649656E-01 -3.434856655386E-01  1.160972847222E-01
C42  1.977663649656E-01  3.434856655386E-01 -1.160972847222E-01
C43 -7.311060733651E-03 -3.896439246731E-01  1.549293958194E-01
C44  7.311060733651E-03  3.896439246731E-01 -1.549293958194E-01
C45  3.024535065504E-02 -3.439148806399E-01  2.419519178170E-01
C46 -3.024535065504E-02  3.439148806399E-01 -2.419519178170E-01
C47 -2.362782584304E-01 -3.877731478547E-01  3.031303903071E-02
C48  2.362782584304E-01  3.877731478547E-01 -3.031303903071E-02
C49 -9.529486635972E-02 -4.768667389862E-01 -1.943679155070E-02
C50  9.529486635972E-02  4.768667389862E-01  1.943679155070E-02
C51  1.332121849602E-01 -4.783359165738E-01  1.058014380758E-01
C52 -1.332121849602E-01  4.783359165738E-01 -1.058014380758E-01
H53 -1.118577304101E-01  1.584544120733E-01  3.147002476785E-01
H54  1.118577304101E-01 -1.584544120733E-01 -3.147002476785E-01
H55 -2.164481117972E-02  3.606913768503E-01  4.466076092963E-01
H56  2.164481117972E-02 -3.606913768503E-01 -4.466076092963E-01
H57  3.340750525985E-01 -4.628455740001E-01  4.733457803422E-01
H58 -3.340750525985E-01  4.628455740001E-01 -4.733457803422E-01
H59 -3.982915203701E-01 -4.912628733145E-01  3.688296255696E-01
H60  3.982915203701E-01  4.912628733145E-01 -3.688296255696E-01
H61 -1.079968102449E-02  2.749302929311E-02  1.772282501498E-01
H62  1.079968102449E-02 -2.749302929311E-02 -1.772282501498E-01
H63 -2.952693344210E-01  3.738326869725E-01  2.320584029858E-01
H64  2.952693344210E-01 -3.738326869725E-01 -2.320584029858E-01
H65  9.078533482613E-02 -1.057190220127E-01  4.067369499551E-02
H66 -9.078533482613E-02  1.057190220127E-01 -4.067369499551E-02
H67 -1.929257510628E-01  2.398100903826E-01  9.563577986197E-02
H68  1.929257510628E-01 -2.398100903826E-01 -9.563577986197E-02
H69  4.150610603687E-01 -8.090694823974E-02  2.734732801267E-01
H70 -4.150610603687E-01  8.090694823974E-02 -2.734732801267E-01
H71  4.914037434235E-01 -2.189830528354E-03  4.246669437612E-01
H72 -4.914037434235E-01  2.189830528354E-03 -4.246669437612E-01
H73 -1.832277668163E-01 -8.888600468152E-02  4.927099719606E-01
H74  1.832277668163E-01  8.888600468152E-02 -4.927099719606E-01
H75  7.190908185976E-02 -2.438351067467E-01  4.075766070061E-01
H76 -7.190908185976E-02  2.438351067467E-01 -4.075766070061E-01
H77 -4.834984579172E-01 -2.184138711254E-01  1.370610708146E-01
H78  4.834984579172E-01  2.184138711254E-01 -1.370610708146E-01
H79  1.742585967604E-01 -3.793868652725E-01  2.715219064731E-01
H80 -1.742585967604E-01  3.793868652725E-01 -2.715219064731E-01
H81 -3.806554443381E-01 -3.526773147580E-01  8.394967617886E-04
H82  3.806554443381E-01  3.526773147580E-01 -8.394967617886E-04
H83  2.774074229077E-01  4.864014925549E-01  1.353371529182E-01
H84 -2.774074229077E-01 -4.864014925549E-01 -1.353371529182E-01


#===END

data_OPT_STEP_67

_symmetry_space_group_name_H-M 'P 1'
_cell_length_a      6.47049893
_cell_length_b      7.79027126
_cell_length_c     16.50185624
_cell_angle_alpha   98.559953
_cell_angle_beta   92.427489
_cell_angle_gamma   96.134997

loop_
_atom_site_label
_atom_site_fract_x
_atom_site_fract_y
_atom_site_fract_z
C1  4.437695263290E-02  2.351660483257E-01  3.264118756188E-01
C2 -4.437695263290E-02 -2.351660483257E-01 -3.264118756188E-01
C3  9.432010516087E-02  3.468780792436E-01  3.989092659107E-01
C4 -9.432010516087E-02 -3.468780792436E-01 -3.989092659107E-01
C5  2.975783650270E-01  4.469924991924E-01  4.143317053394E-01
C6 -2.975783650270E-01 -4.469924991924E-01 -4.143317053394E-01
C7  4.455500689393E-01  4.315815100352E-01  3.569299091571E-01
C8 -4.455500689393E-01 -4.315815100352E-01 -3.569299091571E-01
C9  4.005844926046E-01  3.153786224377E-01  2.794632312400E-01
C10 -4.005844926046E-01 -3.153786224377E-01 -2.794632312400E-01
C11  1.940636855001E-01  2.154164106428E-01  2.636512659588E-01
C12 -1.940636855001E-01 -2.154164106428E-01 -2.636512659588E-01
C13  1.462031077541E-01  1.033093083679E-01  1.892490585504E-01
C14 -1.462031077541E-01 -1.033093083679E-01 -1.892490585504E-01
C15  2.948201927723E-01  8.355643128759E-02  1.276986765189E-01
C16 -2.948201927723E-01 -8.355643128759E-02 -1.276986765189E-01
C17 -4.980310857038E-01  1.831904554619E-01  1.436620392168E-01
C18  4.980310857038E-01 -1.831904554619E-01 -1.436620392168E-01
C19 -4.521400598894E-01  2.977892657526E-01  2.199771879036E-01
C20  4.521400598894E-01 -2.977892657526E-01 -2.199771879036E-01
C21  2.478232128764E-01 -2.996617388486E-02  5.270521270704E-02
C22 -2.478232128764E-01  2.996617388486E-02 -5.270521270704E-02
C23  3.963054855554E-01 -4.981525983458E-02 -7.995798643777E-03
C24 -3.963054855554E-01  4.981525983458E-02  7.995798643777E-03
C25 -3.499761381878E-01  1.641102232427E-01  8.352786346921E-02
C26  3.499761381878E-01 -1.641102232427E-01 -8.352786346921E-02
C27 -4.415394272328E-01 -1.173152106690E-01  3.029239306759E-01
C28  4.415394272328E-01  1.173152106690E-01 -3.029239306759E-01
C29 -3.996814593514E-01 -7.534532604926E-02  3.864104231477E-01
C30  3.996814593514E-01  7.534532604926E-02 -3.864104231477E-01
C31 -2.133940179686E-01 -1.229397897707E-01  4.250301401142E-01
C32  2.133940179686E-01  1.229397897707E-01 -4.250301401142E-01
C33 -7.307041960940E-02 -2.088356730237E-01  3.785297394826E-01
C34  7.307041960940E-02  2.088356730237E-01 -3.785297394826E-01
C35 -1.096876064678E-01 -2.558280721755E-01  2.902462971661E-01
C36  1.096876064678E-01  2.558280721755E-01 -2.902462971661E-01
C37 -2.997745626544E-01 -2.097278526684E-01  2.515123488097E-01
C38  2.997745626544E-01  2.097278526684E-01 -2.515123488097E-01
C39 -3.391126676272E-01 -2.535324656345E-01  1.665150131890E-01
C40  3.391126676272E-01  2.535324656345E-01 -1.665150131890E-01
C41 -1.977639881706E-01 -3.434734175610E-01  1.160962637331E-01
C42  1.977639881706E-01  3.434734175610E-01 -1.160962637331E-01
C43 -7.306270274264E-03 -3.896345537952E-01  1.549228116391E-01
C44  7.306270274264E-03  3.896345537952E-01 -1.549228116391E-01
C45  3.024677239528E-02 -3.439133261565E-01  2.419416181753E-01
C46 -3.024677239528E-02  3.439133261565E-01 -2.419416181753E-01
C47 -2.362828815975E-01 -3.877716032841E-01  3.031662991363E-02
C48  2.362828815975E-01  3.877716032841E-01 -3.031662991363E-02
C49 -9.530077564500E-02 -4.768723006932E-01 -1.943371469664E-02
C50  9.530077564500E-02  4.768723006932E-01  1.943371469664E-02
C51  1.332162494023E-01 -4.783325146550E-01  1.057943891124E-01
C52 -1.332162494023E-01  4.783325146550E-01 -1.057943891124E-01
H53 -1.118789648423E-01  1.584869655827E-01  3.147069563782E-01
H54  1.118789648423E-01 -1.584869655827E-01 -3.147069563782E-01
H55 -2.165391177067E-02  3.606883043032E-01  4.466075594995E-01
H56  2.165391177067E-02 -3.606883043032E-01 -4.466075594995E-01
H57  3.340831621212E-01 -4.628829644304E-01  4.733311525523E-01
H58 -3.340831621212E-01  4.628829644304E-01 -4.733311525523E-01
H59 -3.982797788762E-01 -4.912965213398E-01  3.688057268646E-01
H60  3.982797788762E-01  4.912965213398E-01 -3.688057268646E-01
H61 -1.081424967541E-02  2.752463837935E-02  1.772401681319E-01
H62  1.081424967541E-02 -2.752463837935E-02 -1.772401681319E-01
H63 -2.952523475951E-01  3.737999667375E-01  2.320364667071E-01
H64  2.952523475951E-01 -3.737999667375E-01 -2.320364667071E-01
H65  9.077147880922E-02 -1.056895348900E-01  4.069023823907E-02
H66 -9.077147880922E-02  1.056895348900E-01 -4.069023823907E-02
H67 -1.929154265203E-01  2.397879875059E-01  9.561372828189E-02
H68  1.929154265203E-01 -2.397879875059E-01 -9.561372828189E-02
H69  4.150362251344E-01 -8.092377083003E-02  2.734807783327E-01
H70 -4.150362251344E-01  8.092377083003E-02 -2.734807783327E-01
H71  4.913831347413E-01 -2.219268828820E-03  4.246701952450E-01
H72 -4.913831347413E-01  2.219268828820E-03 -4.246701952450E-01
H73 -1.832352202254E-01 -8.890814388597E-02  4.926986537583E-01
H74  1.832352202254E-01  8.890814388597E-02 -4.926986537583E-01
H75  7.191476210884E-02 -2.438419532290E-01  4.075586500268E-01
H76 -7.191476210884E-02  2.438419532290E-01 -4.075586500268E-01
H77 -4.835130532698E-01 -2.184180677406E-01  1.370678363821E-01
H78  4.835130532698E-01  2.184180677406E-01 -1.370678363821E-01
H79  1.742531351875E-01 -3.794024481482E-01  2.715081261505E-01
H80 -1.742531351875E-01  3.794024481482E-01 -2.715081261505E-01
H81 -3.806629412727E-01 -3.526764193058E-01  8.477891137752E-04
H82  3.806629412727E-01  3.526764193058E-01 -8.477891137752E-04
H83  2.774132876037E-01  4.864021679367E-01  1.353259790082E-01
H84 -2.774132876037E-01 -4.864021679367E-01 -1.353259790082E-01


#===END

data_OPT_STEP_68

_symmetry_space_group_name_H-M 'P 1'
_cell_length_a      6.47005453
_cell_length_b      7.79061036
_cell_length_c     16.50248621
_cell_angle_alpha   98.561165
_cell_angle_beta   92.422645
_cell_angle_gamma   96.132942

loop_
_atom_site_label
_atom_site_fract_x
_atom_site_fract_y
_atom_site_fract_z
C1  4.436391693473E-02  2.351850692595E-01  3.264265252852E-01
C2 -4.436391693473E-02 -2.351850692595E-01 -3.264265252852E-01
C3  9.430708628001E-02  3.469080373794E-01  3.989162207511E-01
C4 -9.430708628001E-02 -3.469080373794E-01 -3.989162207511E-01
C5  2.975900870846E-01  4.469888652974E-01  4.143333457500E-01
C6 -2.975900870846E-01 -4.469888652974E-01 -4.143333457500E-01
C7  4.455751381813E-01  4.315500782176E-01  3.569307003304E-01
C8 -4.455751381813E-01 -4.315500782176E-01 -3.569307003304E-01
C9  4.005992793285E-01  3.153563728279E-01  2.794673433304E-01
C10 -4.005992793285E-01 -3.153563728279E-01 -2.794673433304E-01
C11  1.940640867847E-01  2.154091333500E-01  2.636643864752E-01
C12 -1.940640867847E-01 -2.154091333500E-01 -2.636643864752E-01
C13  1.461974756236E-01  1.033052784349E-01  1.892657917152E-01
C14 -1.461974756236E-01 -1.033052784349E-01 -1.892657917152E-01
C15  2.948223242199E-01  8.354334282990E-02  1.277101558441E-01
C16 -2.948223242199E-01 -8.354334282990E-02 -1.277101558441E-01
C17 -4.980172321421E-01  1.831680673563E-01  1.436641472516E-01
C18  4.980172321421E-01 -1.831680673563E-01 -1.436641472516E-01
C19 -4.521200997603E-01  2.977584495397E-01  2.199766382153E-01
C20  4.521200997603E-01 -2.977584495397E-01 -2.199766382153E-01
C21  2.478164052713E-01 -2.996605011759E-02  5.271729542935E-02
C22 -2.478164052713E-01  2.996605011759E-02 -5.271729542935E-02
C23  3.962957343695E-01 -4.980368491712E-02 -7.993137154695E-03
C24 -3.962957343695E-01  4.980368491712E-02  7.993137154695E-03
C25 -3.499546354145E-01  1.640801530620E-01  8.352539248381E-02
C26  3.499546354145E-01 -1.640801530620E-01 -8.352539248381E-02
C27 -4.415261035135E-01 -1.173250047462E-01  3.029417883991E-01
C28  4.415261035135E-01  1.173250047462E-01 -3.029417883991E-01
C29 -3.996637971121E-01 -7.536660683724E-02  3.864233014213E-01
C30  3.996637971121E-01  7.536660683724E-02 -3.864233014213E-01
C31 -2.133471418955E-01 -1.229443408585E-01  4.250314474419E-01
C32  2.133471418955E-01  1.229443408585E-01 -4.250314474419E-01
C33 -7.301149715757E-02 -2.088332014966E-01  3.785251076855E-01
C34  7.301149715757E-02  2.088332014966E-01 -3.785251076855E-01
C35 -1.096456477142E-01 -2.558312116305E-01  2.902465133235E-01
C36  1.096456477142E-01  2.558312116305E-01 -2.902465133235E-01
C37 -2.997534684994E-01 -2.097324904423E-01  2.515248605604E-01
C38  2.997534684994E-01  2.097324904423E-01 -2.515248605604E-01
C39 -3.391154439812E-01 -2.535450213586E-01  1.665337089155E-01
C40  3.391154439812E-01  2.535450213586E-01 -1.665337089155E-01
C41 -1.977623680272E-01 -3.434821119339E-01  1.161071566217E-01
C42  1.977623680272E-01  3.434821119339E-01 -1.161071566217E-01
C43 -7.284250785990E-03 -3.896458895004E-01  1.549205403082E-01
C44  7.284250785990E-03  3.896458895004E-01 -1.549205403082E-01
C45  3.028748139189E-02 -3.439238010912E-01  2.419349573005E-01
C46 -3.028748139189E-02  3.439238010912E-01 -2.419349573005E-01
C47 -2.362935645440E-01 -3.877666388431E-01  3.033175658599E-02
C48  2.362935645440E-01  3.877666388431E-01 -3.033175658599E-02
C49 -9.530632863192E-02 -4.768635672683E-01 -1.942736357334E-02
C50  9.530632863192E-02  4.768635672683E-01  1.942736357334E-02
C51  1.332402158715E-01 -4.783441488678E-01  1.057835221545E-01
C52 -1.332402158715E-01  4.783441488678E-01 -1.057835221545E-01
H53 -1.119029715464E-01  1.585182385320E-01  3.147287177904E-01
H54  1.119029715464E-01 -1.585182385320E-01 -3.147287177904E-01
H55 -2.167428299423E-02  3.607320993112E-01  4.466159299699E-01
H56  2.167428299423E-02 -3.607320993112E-01 -4.466159299699E-01
H57  3.340977362804E-01 -4.628815097809E-01  4.733269789500E-01
H58 -3.340977362804E-01  4.628815097809E-01 -4.733269789500E-01
H59 -3.982448319507E-01 -4.913379960997E-01  3.687987918821E-01
H60  3.982448319507E-01  4.913379960997E-01 -3.687987918821E-01
H61 -1.082573742223E-02  2.752157858971E-02  1.772659740692E-01
H62  1.082573742223E-02 -2.752157858971E-02 -1.772659740692E-01
H63 -2.952231989198E-01  3.737596795791E-01  2.320291040319E-01
H64  2.952231989198E-01 -3.737596795791E-01 -2.320291040319E-01
H65  9.074573471460E-02 -1.056627797160E-01  4.070418088674E-02
H66 -9.074573471460E-02  1.056627797160E-01 -4.070418088674E-02
H67 -1.928880481878E-01  2.397555037855E-01  9.560272317455E-02
H68  1.928880481878E-01 -2.397555037855E-01 -9.560272317455E-02
H69  4.150275555045E-01 -8.094699375443E-02  2.735067558190E-01
H70 -4.150275555045E-01  8.094699375443E-02 -2.735067558190E-01
H71  4.913963400002E-01 -2.235845971913E-03  4.246846007537E-01
H72 -4.913963400002E-01  2.235845971913E-03 -4.246846007537E-01
H73 -1.831833336346E-01 -8.891432762420E-02  4.926964152492E-01
H74  1.831833336346E-01  8.891432762420E-02 -4.926964152492E-01
H75  7.199069795813E-02 -2.438357385982E-01  4.075445007828E-01
H76 -7.199069795813E-02  2.438357385982E-01 -4.075445007828E-01
H77 -4.835222437753E-01 -2.184175418792E-01  1.370948066598E-01
H78  4.835222437753E-01  2.184175418792E-01 -1.370948066598E-01
H79  1.743203524156E-01 -3.793961830007E-01  2.714911672894E-01
H80 -1.743203524156E-01  3.793961830007E-01 -2.714911672894E-01
H81 -3.806876945479E-01 -3.526686735122E-01  8.723633904486E-04
H82  3.806876945479E-01  3.526686735122E-01 -8.723633904486E-04
H83  2.774528898124E-01  4.863900658840E-01  1.353052552719E-01
H84 -2.774528898124E-01 -4.863900658840E-01 -1.353052552719E-01


#===END

data_OPT_STEP_69

_symmetry_space_group_name_H-M 'P 1'
_cell_length_a      6.46963010
_cell_length_b      7.79097816
_cell_length_c     16.50291462
_cell_angle_alpha   98.559264
_cell_angle_beta   92.417199
_cell_angle_gamma   96.131705

loop_
_atom_site_label
_atom_site_fract_x
_atom_site_fract_y
_atom_site_fract_z
C1  4.437046588113E-02  2.351975747526E-01  3.264392130725E-01
C2 -4.437046588113E-02 -2.351975747526E-01 -3.264392130725E-01
C3  9.432359402498E-02  3.469139008944E-01  3.989223493357E-01
C4 -9.432359402498E-02 -3.469139008944E-01 -3.989223493357E-01
C5  2.976119149670E-01  4.469951635813E-01  4.143232520655E-01
C6 -2.976119149670E-01 -4.469951635813E-01 -4.143232520655E-01
C7  4.455995725172E-01  4.315494518692E-01  3.569147794990E-01
C8 -4.455995725172E-01 -4.315494518692E-01 -3.569147794990E-01
C9  4.006191220596E-01  3.153524154636E-01  2.794601252596E-01
C10 -4.006191220596E-01 -3.153524154636E-01 -2.794601252596E-01
C11  1.940723938696E-01  2.154159837977E-01  2.636710341424E-01
C12 -1.940723938696E-01 -2.154159837977E-01 -2.636710341424E-01
C13  1.462008533003E-01  1.033099901243E-01  1.892809326458E-01
C14 -1.462008533003E-01 -1.033099901243E-01 -1.892809326458E-01
C15  2.948251274269E-01  8.354755172270E-02  1.277176317457E-01
C16 -2.948251274269E-01 -8.354755172270E-02 -1.277176317457E-01
C17 -4.979984651758E-01  1.831533810141E-01  1.436594982169E-01
C18  4.979984651758E-01 -1.831533810141E-01 -1.436594982169E-01
C19 -4.520919250803E-01  2.977364836628E-01  2.199658933501E-01
C20  4.520919250803E-01 -2.977364836628E-01 -2.199658933501E-01
C21  2.478058561471E-01 -2.994863295068E-02  5.272921085381E-02
C22 -2.478058561471E-01  2.994863295068E-02 -5.272921085381E-02
C23  3.962896556239E-01 -4.979736370942E-02 -7.986305546960E-03
C24 -3.962896556239E-01  4.979736370942E-02  7.986305546960E-03
C25 -3.499365966574E-01  1.640640440521E-01  8.351318685605E-02
C26  3.499365966574E-01 -1.640640440521E-01 -8.351318685605E-02
C27 -4.415157036191E-01 -1.173247847899E-01  3.029542578342E-01
C28  4.415157036191E-01  1.173247847899E-01 -3.029542578342E-01
C29 -3.996404665842E-01 -7.536886983368E-02  3.864304800221E-01
C30  3.996404665842E-01  7.536886983368E-02 -3.864304800221E-01
C31 -2.133125619678E-01 -1.229544719725E-01  4.250280034557E-01
C32  2.133125619678E-01  1.229544719725E-01 -4.250280034557E-01
C33 -7.297196196512E-02 -2.088401252973E-01  3.785162799423E-01
C34  7.297196196512E-02  2.088401252973E-01 -3.785162799423E-01
C35 -1.096070324617E-01 -2.558183599741E-01  2.902414980535E-01
C36  1.096070324617E-01  2.558183599741E-01 -2.902414980535E-01
C37 -2.997368426431E-01 -2.097270693869E-01  2.515317205712E-01
C38  2.997368426431E-01  2.097270693869E-01 -2.515317205712E-01
C39 -3.391058817161E-01 -2.535300571252E-01  1.665451173467E-01
C40  3.391058817161E-01  2.535300571252E-01 -1.665451173467E-01
C41 -1.977495230972E-01 -3.434658292410E-01  1.161126397602E-01
C42  1.977495230972E-01  3.434658292410E-01 -1.161126397602E-01
C43 -7.260138408911E-03 -3.896380978754E-01  1.549152748504E-01
C44  7.260138408911E-03  3.896380978754E-01 -1.549152748504E-01
C45  3.032458514884E-02 -3.439170664809E-01  2.419247484322E-01
C46 -3.032458514884E-02  3.439170664809E-01 -2.419247484322E-01
C47 -2.362969707001E-01 -3.877534858265E-01  3.034243998582E-02
C48  2.362969707001E-01  3.877534858265E-01 -3.034243998582E-02
C49 -9.531624587739E-02 -4.768655092675E-01 -1.942162412663E-02
C50  9.531624587739E-02  4.768655092675E-01  1.942162412663E-02
C51  1.332614619261E-01 -4.783447284917E-01  1.057730285691E-01
C52 -1.332614619261E-01  4.783447284917E-01 -1.057730285691E-01
H53 -1.119111412655E-01  1.585485610949E-01  3.147489839409E-01
H54  1.119111412655E-01 -1.585485610949E-01 -3.147489839409E-01
H55 -2.166865970947E-02  3.607560194840E-01  4.466226593050E-01
H56  2.166865970947E-02 -3.607560194840E-01 -4.466226593050E-01
H57  3.341240632834E-01 -4.628763296943E-01  4.733112124492E-01
H58 -3.341240632834E-01  4.628763296943E-01 -4.733112124492E-01
H59 -3.982082859994E-01 -4.913532427891E-01  3.687745715403E-01
H60  3.982082859994E-01  4.913532427891E-01 -3.687745715403E-01
H61 -1.084087384383E-02  2.755335941406E-02  1.772865433949E-01
H62  1.084087384383E-02 -2.755335941406E-02 -1.772865433949E-01
H63 -2.951841651292E-01  3.737269564893E-01  2.320091920204E-01
H64  2.951841651292E-01 -3.737269564893E-01 -2.320091920204E-01
H65  9.072942472722E-02 -1.056429784781E-01  4.072716651374E-02
H66 -9.072942472722E-02  1.056429784781E-01 -4.072716651374E-02
H67 -1.928529040419E-01  2.397156938290E-01  9.558400878856E-02
H68  1.928529040419E-01 -2.397156938290E-01 -9.558400878856E-02
H69  4.150220993932E-01 -8.095289811495E-02  2.735272913984E-01
H70 -4.150220993932E-01  8.095289811495E-02 -2.735272913984E-01
H71  4.914106008451E-01 -2.249252921655E-03  4.246974182154E-01
H72 -4.914106008451E-01  2.249252921655E-03 -4.246974182154E-01
H73 -1.831466700836E-01 -8.893322080319E-02  4.926897615458E-01
H74  1.831466700836E-01  8.893322080319E-02 -4.926897615458E-01
H75  7.204268346977E-02 -2.438438281808E-01  4.075267740836E-01
H76 -7.204268346977E-02  2.438438281808E-01 -4.075267740836E-01
H77 -4.835367611062E-01 -2.184195391756E-01  1.371157530608E-01
H78  4.835367611062E-01  2.184195391756E-01 -1.371157530608E-01
H79  1.743600601292E-01 -3.794053772131E-01  2.714736433991E-01
H80 -1.743600601292E-01  3.794053772131E-01 -2.714736433991E-01
H81 -3.807051149487E-01 -3.526576721978E-01  8.914888355715E-04
H82  3.807051149487E-01  3.526576721978E-01 -8.914888355715E-04
H83  2.774867414188E-01  4.863886024292E-01  1.352864475498E-01
H84 -2.774867414188E-01 -4.863886024292E-01 -1.352864475498E-01


#===END

data_OPT_STEP_70

_symmetry_space_group_name_H-M 'P 1'
_cell_length_a      6.46880590
_cell_length_b      7.79134469
_cell_length_c     16.50341239
_cell_angle_alpha   98.550601
_cell_angle_beta   92.406480
_cell_angle_gamma   96.129337

loop_
_atom_site_label
_atom_site_fract_x
_atom_site_fract_y
_atom_site_fract_z
C1  4.435970566289E-02  2.352147822458E-01  3.264531716697E-01
C2 -4.435970566289E-02 -2.352147822458E-01 -3.264531716697E-01
C3  9.432526368478E-02  3.469150971551E-01  3.989227106600E-01
C4 -9.432526368478E-02 -3.469150971551E-01 -3.989227106600E-01
C5  2.976511960027E-01  4.469478994713E-01  4.143039468965E-01
C6 -2.976511960027E-01 -4.469478994713E-01 -4.143039468965E-01
C7  4.456546031356E-01  4.314895232371E-01  3.568865849347E-01
C8 -4.456546031356E-01 -4.314895232371E-01 -3.568865849347E-01
C9  4.006562747552E-01  3.153173244082E-01  2.794431037689E-01
C10 -4.006562747552E-01 -3.153173244082E-01 -2.794431037689E-01
C11  1.940784288160E-01  2.154160265475E-01  2.636775144820E-01
C12 -1.940784288160E-01 -2.154160265475E-01 -2.636775144820E-01
C13  1.461855146346E-01  1.033369613423E-01  1.892989391477E-01
C14 -1.461855146346E-01 -1.033369613423E-01 -1.892989391477E-01
C15  2.948215232677E-01  8.355917981118E-02  1.277269050027E-01
C16 -2.948215232677E-01 -8.355917981118E-02 -1.277269050027E-01
C17 -4.979723181791E-01  1.831312051183E-01  1.436436811220E-01
C18  4.979723181791E-01 -1.831312051183E-01 -1.436436811220E-01
C19 -4.520506898169E-01  2.977019071452E-01  2.199354982196E-01
C20  4.520506898169E-01 -2.977019071452E-01 -2.199354982196E-01
C21  2.477839421036E-01 -2.992133945258E-02  5.275302590650E-02
C22 -2.477839421036E-01  2.992133945258E-02 -5.275302590650E-02
C23  3.962764267993E-01 -4.978325272773E-02 -7.972825189716E-03
C24 -3.962764267993E-01  4.978325272773E-02  7.972825189716E-03
C25 -3.499048142698E-01  1.640342809863E-01  8.348557628719E-02
C26  3.499048142698E-01 -1.640342809863E-01 -8.348557628719E-02
C27 -4.415471308446E-01 -1.173378441224E-01  3.029653697562E-01
C28  4.415471308446E-01  1.173378441224E-01 -3.029653697562E-01
C29 -3.996577921333E-01 -7.539581186281E-02  3.864330671222E-01
C30  3.996577921333E-01  7.539581186281E-02 -3.864330671222E-01
C31 -2.132975642102E-01 -1.229846072532E-01  4.250124642997E-01
C32  2.132975642102E-01  1.229846072532E-01 -4.250124642997E-01
C33 -7.294134371206E-02 -2.088624360365E-01  3.784926519604E-01
C34  7.294134371206E-02  2.088624360365E-01 -3.784926519604E-01
C35 -1.096057909861E-01 -2.558505528258E-01  2.902284907614E-01
C36  1.096057909861E-01  2.558505528258E-01 -2.902284907614E-01
C37 -2.997531622811E-01 -2.097363137081E-01  2.515347168043E-01
C38  2.997531622811E-01  2.097363137081E-01 -2.515347168043E-01
C39 -3.391334712259E-01 -2.535300542053E-01  1.665566125240E-01
C40  3.391334712259E-01  2.535300542053E-01 -1.665566125240E-01
C41 -1.977648280721E-01 -3.434678084249E-01  1.161176350349E-01
C42  1.977648280721E-01  3.434678084249E-01 -1.161176350349E-01
C43 -7.256691158358E-03 -3.896591977228E-01  1.549046714680E-01
C44  7.256691158358E-03  3.896591977228E-01 -1.549046714680E-01
C45  3.033551063647E-02 -3.439524219531E-01  2.419052308881E-01
C46 -3.033551063647E-02  3.439524219531E-01 -2.419052308881E-01
C47 -2.363194657908E-01 -3.877432639239E-01  3.035601423506E-02
C48  2.363194657908E-01  3.877432639239E-01 -3.035601423506E-02
C49 -9.532425826426E-02 -4.768544174112E-01 -1.941405281297E-02
C50  9.532425826426E-02  4.768544174112E-01  1.941405281297E-02
C51  1.332753209015E-01 -4.783699196931E-01  1.057568017608E-01
C52 -1.332753209015E-01  4.783699196931E-01 -1.057568017608E-01
H53 -1.119442507012E-01  1.585891911228E-01  3.147800402994E-01
H54  1.119442507012E-01 -1.585891911228E-01 -3.147800402994E-01
H55 -2.167510768273E-02  3.607605957671E-01  4.466315725145E-01
H56  2.167510768273E-02 -3.607605957671E-01 -4.466315725145E-01
H57  3.341751591005E-01 -4.629400173370E-01  4.732824947493E-01
H58 -3.341751591005E-01  4.629400173370E-01 -4.732824947493E-01
H59 -3.981246299477E-01 -4.914494613719E-01  3.687323320062E-01
H60  3.981246299477E-01  4.914494613719E-01 -3.687323320062E-01
H61 -1.087176393262E-02  2.759229624760E-02  1.773256615092E-01
H62  1.087176393262E-02 -2.759229624760E-02 -1.773256615092E-01
H63 -2.951181437803E-01  3.736649173411E-01  2.319607710015E-01
H64  2.951181437803E-01 -3.736649173411E-01 -2.319607710015E-01
H65  9.068269435624E-02 -1.055871942661E-01  4.076904243911E-02
H66 -9.068269435624E-02  1.055871942661E-01 -4.076904243911E-02
H67 -1.927995076504E-01  2.396634136562E-01  9.553659778511E-02
H68  1.927995076504E-01 -2.396634136562E-01 -9.553659778511E-02
H69  4.149740321947E-01 -8.095158514175E-02  2.735521268075E-01
H70 -4.149740321947E-01  8.095158514175E-02 -2.735521268075E-01
H71  4.913816045155E-01 -2.286187686866E-03  4.247093037444E-01
H72 -4.913816045155E-01  2.286187686866E-03 -4.247093037444E-01
H73 -1.831165944978E-01 -8.896391872529E-02  4.926665856405E-01
H74  1.831165944978E-01  8.896391872529E-02 -4.926665856405E-01
H75  7.210155723180E-02 -2.438644598870E-01  4.074874166684E-01
H76 -7.210155723180E-02  2.438644598870E-01 -4.074874166684E-01
H77 -4.835781027811E-01 -2.184018395663E-01  1.371400325392E-01
H78  4.835781027811E-01  2.184018395663E-01 -1.371400325392E-01
H79  1.743885325741E-01 -3.794541903075E-01  2.714408357352E-01
H80 -1.743885325741E-01  3.794541903075E-01 -2.714408357352E-01
H81 -3.807407069884E-01 -3.526297832758E-01  9.173965185118E-04
H82  3.807407069884E-01  3.526297832758E-01 -9.173965185118E-04
H83  2.775115982921E-01  4.863419959009E-01  1.352580861551E-01
H84 -2.775115982921E-01 -4.863419959009E-01 -1.352580861551E-01


#===END

data_OPT_STEP_71

_symmetry_space_group_name_H-M 'P 1'
_cell_length_a      6.46885111
_cell_length_b      7.79131536
_cell_length_c     16.50354476
_cell_angle_alpha   98.554049
_cell_angle_beta   92.408444
_cell_angle_gamma   96.129843

loop_
_atom_site_label
_atom_site_fract_x
_atom_site_fract_y
_atom_site_fract_z
C1  4.435588186085E-02  2.351990517446E-01  3.264508391714E-01
C2 -4.435588186085E-02 -2.351990517446E-01 -3.264508391714E-01
C3  9.431746258075E-02  3.469038152949E-01  3.989234949680E-01
C4 -9.431746258075E-02 -3.469038152949E-01 -3.989234949680E-01
C5  2.976355868877E-01  4.469542097356E-01  4.143085624664E-01
C6 -2.976355868877E-01 -4.469542097356E-01 -4.143085624664E-01
C7  4.456394302716E-01  4.315001941294E-01  3.568935737292E-01
C8 -4.456394302716E-01 -4.315001941294E-01 -3.568935737292E-01
C9  4.006456305443E-01  3.153224875558E-01  2.794472602078E-01
C10 -4.006456305443E-01 -3.153224875558E-01 -2.794472602078E-01
C11  1.940716781234E-01  2.154112408636E-01  2.636759876560E-01
C12 -1.940716781234E-01 -2.154112408636E-01 -2.636759876560E-01
C13  1.461828175661E-01  1.033277703096E-01  1.892944489538E-01
C14 -1.461828175661E-01 -1.033277703096E-01 -1.892944489538E-01
C15  2.948193394384E-01  8.355411771323E-02  1.277248216699E-01
C16 -2.948193394384E-01 -8.355411771323E-02 -1.277248216699E-01
C17 -4.979800935491E-01  1.831386203604E-01  1.436465347331E-01
C18  4.979800935491E-01 -1.831386203604E-01 -1.436465347331E-01
C19 -4.520596090182E-01  2.977090958213E-01  2.199425215564E-01
C20  4.520596090182E-01 -2.977090958213E-01 -2.199425215564E-01
C21  2.477861206040E-01 -2.993139879173E-02  5.274820427007E-02
C22 -2.477861206040E-01  2.993139879173E-02 -5.274820427007E-02
C23  3.962782146407E-01 -4.978749672016E-02 -7.975767524127E-03
C24 -3.962782146407E-01  4.978749672016E-02  7.975767524127E-03
C25 -3.499106805977E-01  1.640429664597E-01  8.349146851932E-02
C26  3.499106805977E-01 -1.640429664597E-01 -8.349146851932E-02
C27 -4.415466640323E-01 -1.173379556592E-01  3.029659245012E-01
C28  4.415466640323E-01  1.173379556592E-01 -3.029659245012E-01
C29 -3.996653547854E-01 -7.540470927306E-02  3.864355110140E-01
C30  3.996653547854E-01  7.540470927306E-02 -3.864355110140E-01
C31 -2.133097469402E-01 -1.229959645398E-01  4.250165285954E-01
C32  2.133097469402E-01  1.229959645398E-01 -4.250165285954E-01
C33 -7.295382508303E-02 -2.088739532423E-01  3.784970135331E-01
C34  7.295382508303E-02  2.088739532423E-01 -3.784970135331E-01
C35 -1.096088470875E-01 -2.558519548650E-01  2.902308013194E-01
C36  1.096088470875E-01  2.558519548650E-01 -2.902308013194E-01
C37 -2.997522964761E-01 -2.097358380894E-01  2.515354530984E-01
C38  2.997522964761E-01  2.097358380894E-01 -2.515354530984E-01
C39 -3.391285813342E-01 -2.535265118211E-01  1.665559664372E-01
C40  3.391285813342E-01  2.535265118211E-01 -1.665559664372E-01
C41 -1.977630229408E-01 -3.434675850781E-01  1.161174745452E-01
C42  1.977630229408E-01  3.434675850781E-01 -1.161174745452E-01
C43 -7.256517084820E-03 -3.896570274593E-01  1.549058099080E-01
C44  7.256517084820E-03  3.896570274593E-01 -1.549058099080E-01
C45  3.033487157732E-02 -3.439490726955E-01  2.419073729074E-01
C46 -3.033487157732E-02  3.439490726955E-01 -2.419073729074E-01
C47 -2.363155844797E-01 -3.877420568444E-01  3.035479814557E-02
C48  2.363155844797E-01  3.877420568444E-01 -3.035479814557E-02
C49 -9.532121678253E-02 -4.768521976387E-01 -1.941488124359E-02
C50  9.532121678253E-02  4.768521976387E-01  1.941488124359E-02
C51  1.332746712641E-01 -4.783671092703E-01  1.057582442206E-01
C52 -1.332746712641E-01  4.783671092703E-01 -1.057582442206E-01
H53 -1.119448749864E-01  1.585665998961E-01  3.147738864949E-01
H54  1.119448749864E-01 -1.585665998961E-01 -3.147738864949E-01
H55 -2.168478266456E-02  3.607480963463E-01  4.466299972695E-01
H56  2.168478266456E-02 -3.607480963463E-01 -4.466299972695E-01
H57  3.341590193302E-01 -4.629345847535E-01  4.732900124445E-01
H58 -3.341590193302E-01  4.629345847535E-01 -4.732900124445E-01
H59 -3.981460355318E-01 -4.914258122697E-01  3.687418326318E-01
H60  3.981460355318E-01  4.914258122697E-01 -3.687418326318E-01
H61 -1.086959938232E-02  2.757227266320E-02  1.773181419330E-01
H62  1.086959938232E-02 -2.757227266320E-02 -1.773181419330E-01
H63 -2.951307867816E-01  3.736801139630E-01  2.319715524657E-01
H64  2.951307867816E-01 -3.736801139630E-01 -2.319715524657E-01
H65  9.068691859197E-02 -1.056023687368E-01  4.075987756779E-02
H66 -9.068691859197E-02  1.056023687368E-01 -4.075987756779E-02
H67 -1.928107127878E-01  2.396833683787E-01  9.554532895071E-02
H68  1.928107127878E-01 -2.396833683787E-01 -9.554532895071E-02
H69  4.149767330086E-01 -8.095147144908E-02  2.735511827757E-01
H70 -4.149767330086E-01  8.095147144908E-02 -2.735511827757E-01
H71  4.913752151732E-01 -2.297627371446E-03  4.247127024645E-01
H72 -4.913752151732E-01  2.297627371446E-03 -4.247127024645E-01
H73 -1.831361376707E-01 -8.898289732228E-02  4.926722223914E-01
H74  1.831361376707E-01  8.898289732228E-02 -4.926722223914E-01
H75  7.208382703252E-02 -2.438788717201E-01  4.074942792463E-01
H76 -7.208382703252E-02  2.438788717201E-01 -4.074942792463E-01
H77 -4.835684718742E-01 -2.183940056377E-01  1.371377134141E-01
H78  4.835684718742E-01  2.183940056377E-01 -1.371377134141E-01
H79  1.743877034969E-01 -3.794481130041E-01  2.714440536459E-01
H80 -1.743877034969E-01  3.794481130041E-01 -2.714440536459E-01
H81 -3.807366728929E-01 -3.526313028091E-01  9.149750061125E-04
H82  3.807366728929E-01  3.526313028091E-01 -9.149750061125E-04
H83  2.775076446521E-01  4.863429660076E-01  1.352609275448E-01
H84 -2.775076446521E-01 -4.863429660076E-01 -1.352609275448E-01


#===END

data_OPT_STEP_72

_symmetry_space_group_name_H-M 'P 1'
_cell_length_a      6.46920576
_cell_length_b      7.79120641
_cell_length_c     16.50322057
_cell_angle_alpha   98.558486
_cell_angle_beta   92.413625
_cell_angle_gamma   96.131161

loop_
_atom_site_label
_atom_site_fract_x
_atom_site_fract_y
_atom_site_fract_z
C1  4.434373670310E-02  2.351830551431E-01  3.264440742716E-01
C2 -4.434373670310E-02 -2.351830551431E-01 -3.264440742716E-01
C3  9.429385394758E-02  3.468998452427E-01  3.989232461522E-01
C4 -9.429385394758E-02 -3.468998452427E-01 -3.989232461522E-01
C5  2.976000684491E-01  4.469655172366E-01  4.143216210394E-01
C6 -2.976000684491E-01 -4.469655172366E-01 -4.143216210394E-01
C7  4.456036403590E-01  4.315120343725E-01  3.569130246494E-01
C8 -4.456036403590E-01 -4.315120343725E-01 -3.569130246494E-01
C9  4.006197901537E-01  3.153261066075E-01  2.794595175641E-01
C10 -4.006197901537E-01 -3.153261066075E-01 -2.794595175641E-01
C11  1.940582351085E-01  2.153996269188E-01  2.636745539457E-01
C12 -1.940582351085E-01 -2.153996269188E-01 -2.636745539457E-01
C13  1.461823149572E-01  1.033039879073E-01  1.892863918204E-01
C14 -1.461823149572E-01 -1.033039879073E-01 -1.892863918204E-01
C15  2.948163731578E-01  8.354069671198E-02  1.277212043981E-01
C16 -2.948163731578E-01 -8.354069671198E-02 -1.277212043981E-01
C17 -4.979983007073E-01  1.831460862211E-01  1.436558632451E-01
C18  4.979983007073E-01 -1.831460862211E-01 -1.436558632451E-01
C19 -4.520886800251E-01  2.977228651432E-01  2.199596503315E-01
C20  4.520886800251E-01 -2.977228651432E-01 -2.199596503315E-01
C21  2.477929192801E-01 -2.994834656889E-02  5.273579575655E-02
C22 -2.477929192801E-01  2.994834656889E-02 -5.273579575655E-02
C23  3.962849506634E-01 -4.979632884522E-02 -7.982734320437E-03
C24 -3.962849506634E-01  4.979632884522E-02  7.982734320437E-03
C25 -3.499284528757E-01  1.640571282372E-01  8.350665437172E-02
C26  3.499284528757E-01 -1.640571282372E-01 -8.350665437172E-02
C27 -4.415297218504E-01 -1.173468711927E-01  3.029666509011E-01
C28  4.415297218504E-01  1.173468711927E-01 -3.029666509011E-01
C29 -3.996471161765E-01 -7.540357777903E-02  3.864403021528E-01
C30  3.996471161765E-01  7.540357777903E-02 -3.864403021528E-01
C31 -2.133043395011E-01 -1.229937601652E-01  4.250289194027E-01
C32  2.133043395011E-01  1.229937601652E-01 -4.250289194027E-01
C33 -7.295765206959E-02 -2.088755551671E-01  3.785120426698E-01
C34  7.295765206959E-02  2.088755551671E-01 -3.785120426698E-01
C35 -1.096076035237E-01 -2.558548338483E-01  2.902408049705E-01
C36  1.096076035237E-01  2.558548338483E-01 -2.902408049705E-01
C37 -2.997455667111E-01 -2.097490307299E-01  2.515388461662E-01
C38  2.997455667111E-01  2.097490307299E-01 -2.515388461662E-01
C39 -3.391188386307E-01 -2.535411345854E-01  1.665547632860E-01
C40  3.391188386307E-01  2.535411345854E-01 -1.665547632860E-01
C41 -1.977601272934E-01 -3.434803129627E-01  1.161179666926E-01
C42  1.977601272934E-01  3.434803129627E-01 -1.161179666926E-01
C43 -7.262487970794E-03 -3.896650028305E-01  1.549129885325E-01
C44  7.262487970794E-03  3.896650028305E-01 -1.549129885325E-01
C45  3.033075850786E-02 -3.439488044410E-01  2.419190204294E-01
C46 -3.033075850786E-02  3.439488044410E-01 -2.419190204294E-01
C47 -2.363062316205E-01 -3.877495403229E-01  3.035015086397E-02
C48  2.363062316205E-01  3.877495403229E-01 -3.035015086397E-02
C49 -9.531545005462E-02 -4.768523683038E-01 -1.941827601739E-02
C50  9.531545005462E-02  4.768523683038E-01  1.941827601739E-02
C51  1.332627322858E-01 -4.783720546120E-01  1.057668480959E-01
C52 -1.332627322858E-01  4.783720546120E-01 -1.057668480959E-01
H53 -1.119467536700E-01  1.585387696218E-01  3.147581815582E-01
H54  1.119467536700E-01 -1.585387696218E-01 -3.147581815582E-01
H55 -2.170948378245E-02  3.607435674231E-01  4.466243086547E-01
H56  2.170948378245E-02 -3.607435674231E-01 -4.466243086547E-01
H57  3.341181137656E-01 -4.629190351066E-01  4.733084782773E-01
H58 -3.341181137656E-01  4.629190351066E-01 -4.733084782773E-01
H59 -3.981933790443E-01 -4.913992948629E-01  3.687697190767E-01
H60  3.981933790443E-01  4.913992948629E-01 -3.687697190767E-01
H61 -1.086535350389E-02  2.754513371112E-02  1.772982981459E-01
H62  1.086535350389E-02 -2.754513371112E-02 -1.772982981459E-01
H63 -2.951693202875E-01  3.737045011567E-01  2.319990961749E-01
H64  2.951693202875E-01 -3.737045011567E-01 -2.319990961749E-01
H65  9.070973054611E-02 -1.056429916756E-01  4.074027026455E-02
H66 -9.070973054611E-02  1.056429916756E-01 -4.074027026455E-02
H67 -1.928395902048E-01  2.397112640982E-01  9.557019473642E-02
H68  1.928395902048E-01 -2.397112640982E-01 -9.557019473642E-02
H69  4.150059722033E-01 -8.095695728009E-02  2.735454949051E-01
H70 -4.150059722033E-01  8.095695728009E-02 -2.735454949051E-01
H71  4.914045816867E-01 -2.291630360612E-03  4.247162879577E-01
H72 -4.914045816867E-01  2.291630360612E-03 -4.247162879577E-01
H73 -1.831290210315E-01 -8.897116120633E-02  4.926877822416E-01
H74  1.831290210315E-01  8.897116120633E-02 -4.926877822416E-01
H75  7.206565437596E-02 -2.438831353701E-01  4.075171568963E-01
H76 -7.206565437596E-02  2.438831353701E-01 -4.075171568963E-01
H77 -4.835532842003E-01 -2.184146755815E-01  1.371310527792E-01
H78  4.835532842003E-01  2.184146755815E-01 -1.371310527792E-01
H79  1.743763182726E-01 -3.794428348783E-01  2.714612759477E-01
H80 -1.743763182726E-01  3.794428348783E-01 -2.714612759477E-01
H81 -3.807183219753E-01 -3.526397892515E-01  9.046865533514E-04
H82  3.807183219753E-01  3.526397892515E-01 -9.046865533514E-04
H83  2.775006500831E-01  4.863599581086E-01  1.352736540566E-01
H84 -2.775006500831E-01 -4.863599581086E-01 -1.352736540566E-01


#===END

data_OPT_STEP_73

_symmetry_space_group_name_H-M 'P 1'
_cell_length_a      6.46908919
_cell_length_b      7.79127753
_cell_length_c     16.50324006
_cell_angle_alpha   98.556259
_cell_angle_beta   92.411583
_cell_angle_gamma   96.131177

loop_
_atom_site_label
_atom_site_fract_x
_atom_site_fract_y
_atom_site_fract_z
C1  4.434665049881E-02  2.351883240856E-01  3.264473403512E-01
C2 -4.434665049881E-02 -2.351883240856E-01 -3.264473403512E-01
C3  9.430242246409E-02  3.468990412956E-01  3.989241227022E-01
C4 -9.430242246409E-02 -3.468990412956E-01 -3.989241227022E-01
C5  2.976118669269E-01  4.469614391590E-01  4.143166447984E-01
C6 -2.976118669269E-01 -4.469614391590E-01 -4.143166447984E-01
C7  4.456150185885E-01  4.315078228048E-01  3.569054620468E-01
C8 -4.456150185885E-01 -4.315078228048E-01 -3.569054620468E-01
C9  4.006276741209E-01  3.153241181332E-01  2.794550027158E-01
C10 -4.006276741209E-01 -3.153241181332E-01 -2.794550027158E-01
C11  1.940616685933E-01  2.154024897018E-01  2.636756458997E-01
C12 -1.940616685933E-01 -2.154024897018E-01 -2.636756458997E-01
C13  1.461818126727E-01  1.033094559000E-01  1.892904336719E-01
C14 -1.461818126727E-01 -1.033094559000E-01 -1.892904336719E-01
C15  2.948175110916E-01  8.354233217243E-02  1.277233918632E-01
C16 -2.948175110916E-01 -8.354233217243E-02 -1.277233918632E-01
C17 -4.979908318924E-01  1.831399282929E-01  1.436532584374E-01
C18  4.979908318924E-01 -1.831399282929E-01 -1.436532584374E-01
C19 -4.520763946626E-01  2.977120768611E-01  2.199545877306E-01
C20  4.520763946626E-01 -2.977120768611E-01 -2.199545877306E-01
C21  2.477903628542E-01 -2.994468290155E-02  5.274097227170E-02
C22 -2.477903628542E-01  2.994468290155E-02 -5.274097227170E-02
C23  3.962815510438E-01 -4.979212250914E-02 -7.980445242717E-03
C24 -3.962815510438E-01  4.979212250914E-02  7.980445242717E-03
C25 -3.499205475024E-01  1.640494358979E-01  8.350172550082E-02
C26  3.499205475024E-01 -1.640494358979E-01 -8.350172550082E-02
C27 -4.415268257724E-01 -1.173471563767E-01  3.029690870062E-01
C28  4.415268257724E-01  1.173471563767E-01 -3.029690870062E-01
C29 -3.996458087477E-01 -7.541452842515E-02  3.864416935920E-01
C30  3.996458087477E-01  7.541452842515E-02 -3.864416935920E-01
C31 -2.132986862548E-01 -1.230057841059E-01  4.250271978421E-01
C32  2.132986862548E-01  1.230057841059E-01 -4.250271978421E-01
C33 -7.295134956187E-02 -2.088858539797E-01  3.785087953475E-01
C34  7.295134956187E-02  2.088858539797E-01 -3.785087953475E-01
C35 -1.096008990249E-01 -2.558564308664E-01  2.902387758178E-01
C36  1.096008990249E-01  2.558564308664E-01 -2.902387758178E-01
C37 -2.997412915959E-01 -2.097467172108E-01  2.515396631804E-01
C38  2.997412915959E-01  2.097467172108E-01 -2.515396631804E-01
C39 -3.391169176166E-01 -2.535361977686E-01  1.665569427472E-01
C40  3.391169176166E-01  2.535361977686E-01 -1.665569427472E-01
C41 -1.977569078291E-01 -3.434743987019E-01  1.161187950207E-01
C42  1.977569078291E-01  3.434743987019E-01 -1.161187950207E-01
C43 -7.256171939563E-03 -3.896620134432E-01  1.549111344944E-01
C44  7.256171939563E-03  3.896620134432E-01 -1.549111344944E-01
C45  3.033736536061E-02 -3.439509039902E-01  2.419159439259E-01
C46 -3.033736536061E-02  3.439509039902E-01 -2.419159439259E-01
C47 -2.363082816521E-01 -3.877467496628E-01  3.035256274673E-02
C48  2.363082816521E-01  3.877467496628E-01 -3.035256274673E-02
C49 -9.531949127122E-02 -4.768545569816E-01 -1.941676349452E-02
C50  9.531949127122E-02  4.768545569816E-01  1.941676349452E-02
C51  1.332713002720E-01 -4.783674997171E-01  1.057638043249E-01
C52 -1.332713002720E-01  4.783674997171E-01 -1.057638043249E-01
H53 -1.119467616033E-01  1.585463699939E-01  3.147658151599E-01
H54  1.119467616033E-01 -1.585463699939E-01 -3.147658151599E-01
H55 -2.170456441277E-02  3.607492212826E-01  4.466256391205E-01
H56  2.170456441277E-02 -3.607492212826E-01 -4.466256391205E-01
H57  3.341317486229E-01 -4.629232511696E-01  4.733009518901E-01
H58 -3.341317486229E-01  4.629232511696E-01 -4.733009518901E-01
H59 -3.981776725691E-01 -4.914083965784E-01  3.687584616482E-01
H60  3.981776725691E-01  4.914083965784E-01 -3.687584616482E-01
H61 -1.086799392176E-02  2.755135475047E-02  1.773071055152E-01
H62  1.086799392176E-02 -2.755135475047E-02 -1.773071055152E-01
H63 -2.951555463839E-01  3.736936626039E-01  2.319890307662E-01
H64  2.951555463839E-01 -3.736936626039E-01 -2.319890307662E-01
H65  9.069920345634E-02 -1.056275178327E-01  4.074753646908E-02
H66 -9.069920345634E-02  1.056275178327E-01 -4.074753646908E-02
H67 -1.928269026061E-01  2.396976984852E-01  9.556169264994E-02
H68  1.928269026061E-01 -2.396976984852E-01 -9.556169264994E-02
H69  4.150029697730E-01 -8.095959231397E-02  2.735507819300E-01
H70 -4.150029697730E-01  8.095959231397E-02 -2.735507819300E-01
H71  4.914064832165E-01 -2.303715723925E-03  4.247196748828E-01
H72 -4.914064832165E-01  2.303715723925E-03 -4.247196748828E-01
H73 -1.831274814254E-01 -8.899442756474E-02  4.926854936210E-01
H74  1.831274814254E-01  8.899442756474E-02 -4.926854936210E-01
H75  7.207541959449E-02 -2.438945562154E-01  4.075110786342E-01
H76 -7.207541959449E-02  2.438945562154E-01 -4.075110786342E-01
H77 -4.835517430722E-01 -2.184046750621E-01  1.371352454237E-01
H78  4.835517430722E-01  2.184046750621E-01 -1.371352454237E-01
H79  1.743850912307E-01 -3.794469983494E-01  2.714560228248E-01
H80 -1.743850912307E-01  3.794469983494E-01 -2.714560228248E-01
H81 -3.807238991350E-01 -3.526368752152E-01  9.093273294289E-04
H82  3.807238991350E-01  3.526368752152E-01 -9.093273294289E-04
H83  2.775022216516E-01  4.863493416016E-01  1.352694418050E-01
H84 -2.775022216516E-01 -4.863493416016E-01 -1.352694418050E-01


#===END

data_OPT_STEP_74

_symmetry_space_group_name_H-M 'P 1'
_cell_length_a      6.46908919
_cell_length_b      7.79127753
_cell_length_c     16.50324006
_cell_angle_alpha   98.556259
_cell_angle_beta   92.411583
_cell_angle_gamma   96.131177

loop_
_atom_site_label
_atom_site_fract_x
_atom_site_fract_y
_atom_site_fract_z
C1  4.434665049881E-02  2.351883240856E-01  3.264473403512E-01
C2 -4.434665049881E-02 -2.351883240856E-01 -3.264473403512E-01
C3  9.430242246409E-02  3.468990412956E-01  3.989241227022E-01
C4 -9.430242246409E-02 -3.468990412956E-01 -3.989241227022E-01
C5  2.976118669269E-01  4.469614391590E-01  4.143166447984E-01
C6 -2.976118669269E-01 -4.469614391590E-01 -4.143166447984E-01
C7  4.456150185885E-01  4.315078228048E-01  3.569054620468E-01
C8 -4.456150185885E-01 -4.315078228048E-01 -3.569054620468E-01
C9  4.006276741209E-01  3.153241181332E-01  2.794550027158E-01
C10 -4.006276741209E-01 -3.153241181332E-01 -2.794550027158E-01
C11  1.940616685933E-01  2.154024897018E-01  2.636756458997E-01
C12 -1.940616685933E-01 -2.154024897018E-01 -2.636756458997E-01
C13  1.461818126727E-01  1.033094559000E-01  1.892904336719E-01
C14 -1.461818126727E-01 -1.033094559000E-01 -1.892904336719E-01
C15  2.948175110916E-01  8.354233217243E-02  1.277233918632E-01
C16 -2.948175110916E-01 -8.354233217243E-02 -1.277233918632E-01
C17 -4.979908318924E-01  1.831399282929E-01  1.436532584374E-01
C18  4.979908318924E-01 -1.831399282929E-01 -1.436532584374E-01
C19 -4.520763946626E-01  2.977120768611E-01  2.199545877306E-01
C20  4.520763946626E-01 -2.977120768611E-01 -2.199545877306E-01
C21  2.477903628542E-01 -2.994468290155E-02  5.274097227170E-02
C22 -2.477903628542E-01  2.994468290155E-02 -5.274097227170E-02
C23  3.962815510438E-01 -4.979212250914E-02 -7.980445242717E-03
C24 -3.962815510438E-01  4.979212250914E-02  7.980445242717E-03
C25 -3.499205475024E-01  1.640494358979E-01  8.350172550082E-02
C26  3.499205475024E-01 -1.640494358979E-01 -8.350172550082E-02
C27 -4.415268257724E-01 -1.173471563767E-01  3.029690870062E-01
C28  4.415268257724E-01  1.173471563767E-01 -3.029690870062E-01
C29 -3.996458087477E-01 -7.541452842515E-02  3.864416935920E-01
C30  3.996458087477E-01  7.541452842515E-02 -3.864416935920E-01
C31 -2.132986862548E-01 -1.230057841059E-01  4.250271978421E-01
C32  2.132986862548E-01  1.230057841059E-01 -4.250271978421E-01
C33 -7.295134956187E-02 -2.088858539797E-01  3.785087953475E-01
C34  7.295134956187E-02  2.088858539797E-01 -3.785087953475E-01
C35 -1.096008990249E-01 -2.558564308664E-01  2.902387758178E-01
C36  1.096008990249E-01  2.558564308664E-01 -2.902387758178E-01
C37 -2.997412915959E-01 -2.097467172108E-01  2.515396631804E-01
C38  2.997412915959E-01  2.097467172108E-01 -2.515396631804E-01
C39 -3.391169176166E-01 -2.535361977686E-01  1.665569427472E-01
C40  3.391169176166E-01  2.535361977686E-01 -1.665569427472E-01
C41 -1.977569078291E-01 -3.434743987019E-01  1.161187950207E-01
C42  1.977569078291E-01  3.434743987019E-01 -1.161187950207E-01
C43 -7.256171939563E-03 -3.896620134432E-01  1.549111344944E-01
C44  7.256171939563E-03  3.896620134432E-01 -1.549111344944E-01
C45  3.033736536061E-02 -3.439509039902E-01  2.419159439259E-01
C46 -3.033736536061E-02  3.439509039902E-01 -2.419159439259E-01
C47 -2.363082816521E-01 -3.877467496628E-01  3.035256274673E-02
C48  2.363082816521E-01  3.877467496628E-01 -3.035256274673E-02
C49 -9.531949127122E-02 -4.768545569816E-01 -1.941676349452E-02
C50  9.531949127122E-02  4.768545569816E-01  1.941676349452E-02
C51  1.332713002720E-01 -4.783674997171E-01  1.057638043249E-01
C52 -1.332713002720E-01  4.783674997171E-01 -1.057638043249E-01
H53 -1.119467616033E-01  1.585463699939E-01  3.147658151599E-01
H54  1.119467616033E-01 -1.585463699939E-01 -3.147658151599E-01
H55 -2.170456441277E-02  3.607492212826E-01  4.466256391205E-01
H56  2.170456441277E-02 -3.607492212826E-01 -4.466256391205E-01
H57  3.341317486229E-01 -4.629232511696E-01  4.733009518901E-01
H58 -3.341317486229E-01  4.629232511696E-01 -4.733009518901E-01
H59 -3.981776725691E-01 -4.914083965784E-01  3.687584616482E-01
H60  3.981776725691E-01  4.914083965784E-01 -3.687584616482E-01
H61 -1.086799392176E-02  2.755135475047E-02  1.773071055152E-01
H62  1.086799392176E-02 -2.755135475047E-02 -1.773071055152E-01
H63 -2.951555463839E-01  3.736936626039E-01  2.319890307662E-01
H64  2.951555463839E-01 -3.736936626039E-01 -2.319890307662E-01
H65  9.069920345634E-02 -1.056275178327E-01  4.074753646908E-02
H66 -9.069920345634E-02  1.056275178327E-01 -4.074753646908E-02
H67 -1.928269026061E-01  2.396976984852E-01  9.556169264994E-02
H68  1.928269026061E-01 -2.396976984852E-01 -9.556169264994E-02
H69  4.150029697730E-01 -8.095959231397E-02  2.735507819300E-01
H70 -4.150029697730E-01  8.095959231397E-02 -2.735507819300E-01
H71  4.914064832165E-01 -2.303715723925E-03  4.247196748828E-01
H72 -4.914064832165E-01  2.303715723925E-03 -4.247196748828E-01
H73 -1.831274814254E-01 -8.899442756474E-02  4.926854936210E-01
H74  1.831274814254E-01  8.899442756474E-02 -4.926854936210E-01
H75  7.207541959449E-02 -2.438945562154E-01  4.075110786342E-01
H76 -7.207541959449E-02  2.438945562154E-01 -4.075110786342E-01
H77 -4.835517430722E-01 -2.184046750621E-01  1.371352454237E-01
H78  4.835517430722E-01  2.184046750621E-01 -1.371352454237E-01
H79  1.743850912307E-01 -3.794469983494E-01  2.714560228248E-01
H80 -1.743850912307E-01  3.794469983494E-01 -2.714560228248E-01
H81 -3.807238991350E-01 -3.526368752152E-01  9.093273294289E-04
H82  3.807238991350E-01  3.526368752152E-01 -9.093273294289E-04
H83  2.775022216516E-01  4.863493416016E-01  1.352694418050E-01
H84 -2.775022216516E-01 -4.863493416016E-01 -1.352694418050E-01


#===END
