###############################################################################
#
#                    CRYSTAL17 CIF FILE
#
###############################################################################

data_OPT_STEP_1

_symmetry_space_group_name_H-M 'P 1'
_cell_length_a      7.90000000
_cell_length_b      6.06000000
_cell_length_c     16.01000000
_cell_angle_alpha  101.900002
_cell_angle_beta  112.599998
_cell_angle_gamma   85.800003

loop_
_atom_site_label
_atom_site_fract_x
_atom_site_fract_y
_atom_site_fract_z
C1  1.484000000000E-01  1.830000000000E-02  4.071000000000E-01
C2 -1.484000000000E-01 -1.830000000000E-02 -4.071000000000E-01
C3 -1.520000000000E-02 -2.634000000000E-01  2.786000000000E-01
C4  1.520000000000E-02  2.634000000000E-01 -2.786000000000E-01
C5  5.190000000000E-02 -1.800000000000E-01  3.706000000000E-01
C6 -5.190000000000E-02  1.800000000000E-01 -3.706000000000E-01
C7  1.707000000000E-01  1.361000000000E-01  3.491000000000E-01
C8 -1.707000000000E-01 -1.361000000000E-01 -3.491000000000E-01
C9  1.030000000000E-01  6.040000000000E-02  2.508000000000E-01
C10 -1.030000000000E-01 -6.040000000000E-02 -2.508000000000E-01
C11  1.274000000000E-01  1.650000000000E-01  1.894000000000E-01
C12 -1.274000000000E-01 -1.650000000000E-01 -1.894000000000E-01
C13  5.720000000000E-02  9.510000000000E-02  9.500000000000E-02
C14 -5.720000000000E-02 -9.510000000000E-02 -9.500000000000E-02
C15  9.250000000000E-02  2.095000000000E-01  3.350000000000E-02
C16 -9.250000000000E-02 -2.095000000000E-01 -3.350000000000E-02
C17 -2.270000000000E-02 -1.227000000000E-01  5.670000000000E-02
C18  2.270000000000E-02  1.227000000000E-01 -5.670000000000E-02
C19 -5.400000000000E-02 -2.325000000000E-01  1.225000000000E-01
C20  5.400000000000E-02  2.325000000000E-01 -1.225000000000E-01
C21  1.500000000000E-02 -1.516000000000E-01  2.149000000000E-01
C22 -1.500000000000E-02  1.516000000000E-01 -2.149000000000E-01
H23  2.020000000000E-01  8.700000000000E-02  4.820000000000E-01
H24 -2.020000000000E-01 -8.700000000000E-02 -4.820000000000E-01
H25 -8.500000000000E-02 -4.270000000000E-01  2.510000000000E-01
H26  8.500000000000E-02  4.270000000000E-01 -2.510000000000E-01
H27  3.300000000000E-02 -2.720000000000E-01  4.200000000000E-01
H28 -3.300000000000E-02  2.720000000000E-01 -4.200000000000E-01
H29  2.460000000000E-01  2.940000000000E-01  3.700000000000E-01
H30 -2.460000000000E-01 -2.940000000000E-01 -3.700000000000E-01
H31  2.020000000000E-01  3.210000000000E-01  2.180000000000E-01
H32 -2.020000000000E-01 -3.210000000000E-01 -2.180000000000E-01
H33  1.620000000000E-01  3.620000000000E-01  6.100000000000E-02
H34 -1.620000000000E-01 -3.620000000000E-01 -6.100000000000E-02
H35 -1.220000000000E-01 -3.950000000000E-01  9.800000000000E-02
H36  1.220000000000E-01  3.950000000000E-01 -9.800000000000E-02
C37 -4.373000000000E-01 -4.267000000000E-01  4.014000000000E-01
C38  4.373000000000E-01  4.267000000000E-01 -4.014000000000E-01
C39 -4.965000000000E-01 -3.195000000000E-01  3.286000000000E-01
C40  4.965000000000E-01  3.195000000000E-01 -3.286000000000E-01
C41 -4.790000000000E-01 -4.124000000000E-01  2.434000000000E-01
C42  4.790000000000E-01  4.124000000000E-01 -2.434000000000E-01
C43  4.582000000000E-01 -2.990000000000E-01  1.686000000000E-01
C44 -4.582000000000E-01  2.990000000000E-01 -1.686000000000E-01
C45  4.810000000000E-01 -3.938000000000E-01  8.460000000000E-02
C46 -4.810000000000E-01  3.938000000000E-01 -8.460000000000E-02
C47  4.231000000000E-01 -2.862000000000E-01  1.000000000000E-02
C48 -4.231000000000E-01  2.862000000000E-01 -1.000000000000E-02
C49 -4.378000000000E-01  3.794000000000E-01  7.540000000000E-02
C50  4.378000000000E-01 -3.794000000000E-01 -7.540000000000E-02
C51 -3.897000000000E-01  2.743000000000E-01  1.483000000000E-01
C52  3.897000000000E-01 -2.743000000000E-01 -1.483000000000E-01
C53 -3.939000000000E-01  3.652000000000E-01  2.342000000000E-01
C54  3.939000000000E-01 -3.652000000000E-01 -2.342000000000E-01
C55 -3.451000000000E-01  2.570000000000E-01  3.094000000000E-01
C56  3.451000000000E-01 -2.570000000000E-01 -3.094000000000E-01
C57 -3.504000000000E-01  3.487000000000E-01  3.925000000000E-01
C58  3.504000000000E-01 -3.487000000000E-01 -3.925000000000E-01
H59 -4.470000000000E-01 -3.390000000000E-01  4.750000000000E-01
H60  4.470000000000E-01  3.390000000000E-01 -4.750000000000E-01
H61  4.470000000000E-01 -1.470000000000E-01  3.350000000000E-01
H62 -4.470000000000E-01  1.470000000000E-01 -3.350000000000E-01
H63  4.010000000000E-01 -1.270000000000E-01  1.780000000000E-01
H64 -4.010000000000E-01  1.270000000000E-01 -1.780000000000E-01
H65  3.620000000000E-01 -1.130000000000E-01  2.000000000000E-02
H66 -3.620000000000E-01  1.130000000000E-01 -2.000000000000E-02
H67 -3.270000000000E-01  1.040000000000E-01  1.420000000000E-01
H68  3.270000000000E-01 -1.040000000000E-01 -1.420000000000E-01
H69 -2.820000000000E-01  8.800000000000E-02  3.040000000000E-01
H70  2.820000000000E-01 -8.800000000000E-02 -3.040000000000E-01
H71 -3.000000000000E-01  2.650000000000E-01  4.530000000000E-01
H72  3.000000000000E-01 -2.650000000000E-01 -4.530000000000E-01


#===END

data_OPT_STEP_2

_symmetry_space_group_name_H-M 'P 1'
_cell_length_a      7.90000000
_cell_length_b      6.06000000
_cell_length_c     16.01000000
_cell_angle_alpha  101.900002
_cell_angle_beta  112.599998
_cell_angle_gamma   85.800003

loop_
_atom_site_label
_atom_site_fract_x
_atom_site_fract_y
_atom_site_fract_z
C1  1.484000000000E-01  1.830000000000E-02  4.071000000000E-01
C2 -1.484000000000E-01 -1.830000000000E-02 -4.071000000000E-01
C3 -1.520000000000E-02 -2.634000000000E-01  2.786000000000E-01
C4  1.520000000000E-02  2.634000000000E-01 -2.786000000000E-01
C5  5.190000000000E-02 -1.800000000000E-01  3.706000000000E-01
C6 -5.190000000000E-02  1.800000000000E-01 -3.706000000000E-01
C7  1.707000000000E-01  1.361000000000E-01  3.491000000000E-01
C8 -1.707000000000E-01 -1.361000000000E-01 -3.491000000000E-01
C9  1.030000000000E-01  6.040000000000E-02  2.508000000000E-01
C10 -1.030000000000E-01 -6.040000000000E-02 -2.508000000000E-01
C11  1.274000000000E-01  1.650000000000E-01  1.894000000000E-01
C12 -1.274000000000E-01 -1.650000000000E-01 -1.894000000000E-01
C13  5.720000000000E-02  9.510000000000E-02  9.500000000000E-02
C14 -5.720000000000E-02 -9.510000000000E-02 -9.500000000000E-02
C15  9.250000000000E-02  2.095000000000E-01  3.350000000000E-02
C16 -9.250000000000E-02 -2.095000000000E-01 -3.350000000000E-02
C17 -2.270000000000E-02 -1.227000000000E-01  5.670000000000E-02
C18  2.270000000000E-02  1.227000000000E-01 -5.670000000000E-02
C19 -5.400000000000E-02 -2.325000000000E-01  1.225000000000E-01
C20  5.400000000000E-02  2.325000000000E-01 -1.225000000000E-01
C21  1.500000000000E-02 -1.516000000000E-01  2.149000000000E-01
C22 -1.500000000000E-02  1.516000000000E-01 -2.149000000000E-01
H23  2.020000000000E-01  8.700000000000E-02  4.820000000000E-01
H24 -2.020000000000E-01 -8.700000000000E-02 -4.820000000000E-01
H25 -8.500000000000E-02 -4.270000000000E-01  2.510000000000E-01
H26  8.500000000000E-02  4.270000000000E-01 -2.510000000000E-01
H27  3.300000000000E-02 -2.720000000000E-01  4.200000000000E-01
H28 -3.300000000000E-02  2.720000000000E-01 -4.200000000000E-01
H29  2.460000000000E-01  2.940000000000E-01  3.700000000000E-01
H30 -2.460000000000E-01 -2.940000000000E-01 -3.700000000000E-01
H31  2.020000000000E-01  3.210000000000E-01  2.180000000000E-01
H32 -2.020000000000E-01 -3.210000000000E-01 -2.180000000000E-01
H33  1.620000000000E-01  3.620000000000E-01  6.100000000000E-02
H34 -1.620000000000E-01 -3.620000000000E-01 -6.100000000000E-02
H35 -1.220000000000E-01 -3.950000000000E-01  9.800000000000E-02
H36  1.220000000000E-01  3.950000000000E-01 -9.800000000000E-02
C37 -4.373000000000E-01 -4.267000000000E-01  4.014000000000E-01
C38  4.373000000000E-01  4.267000000000E-01 -4.014000000000E-01
C39 -4.965000000000E-01 -3.195000000000E-01  3.286000000000E-01
C40  4.965000000000E-01  3.195000000000E-01 -3.286000000000E-01
C41 -4.790000000000E-01 -4.124000000000E-01  2.434000000000E-01
C42  4.790000000000E-01  4.124000000000E-01 -2.434000000000E-01
C43  4.582000000000E-01 -2.990000000000E-01  1.686000000000E-01
C44 -4.582000000000E-01  2.990000000000E-01 -1.686000000000E-01
C45  4.810000000000E-01 -3.938000000000E-01  8.460000000000E-02
C46 -4.810000000000E-01  3.938000000000E-01 -8.460000000000E-02
C47  4.231000000000E-01 -2.862000000000E-01  1.000000000000E-02
C48 -4.231000000000E-01  2.862000000000E-01 -1.000000000000E-02
C49 -4.378000000000E-01  3.794000000000E-01  7.540000000000E-02
C50  4.378000000000E-01 -3.794000000000E-01 -7.540000000000E-02
C51 -3.897000000000E-01  2.743000000000E-01  1.483000000000E-01
C52  3.897000000000E-01 -2.743000000000E-01 -1.483000000000E-01
C53 -3.939000000000E-01  3.652000000000E-01  2.342000000000E-01
C54  3.939000000000E-01 -3.652000000000E-01 -2.342000000000E-01
C55 -3.451000000000E-01  2.570000000000E-01  3.094000000000E-01
C56  3.451000000000E-01 -2.570000000000E-01 -3.094000000000E-01
C57 -3.504000000000E-01  3.487000000000E-01  3.925000000000E-01
C58  3.504000000000E-01 -3.487000000000E-01 -3.925000000000E-01
H59 -4.470000000000E-01 -3.390000000000E-01  4.750000000000E-01
H60  4.470000000000E-01  3.390000000000E-01 -4.750000000000E-01
H61  4.470000000000E-01 -1.470000000000E-01  3.350000000000E-01
H62 -4.470000000000E-01  1.470000000000E-01 -3.350000000000E-01
H63  4.010000000000E-01 -1.270000000000E-01  1.780000000000E-01
H64 -4.010000000000E-01  1.270000000000E-01 -1.780000000000E-01
H65  3.620000000000E-01 -1.130000000000E-01  2.000000000000E-02
H66 -3.620000000000E-01  1.130000000000E-01 -2.000000000000E-02
H67 -3.270000000000E-01  1.040000000000E-01  1.420000000000E-01
H68  3.270000000000E-01 -1.040000000000E-01 -1.420000000000E-01
H69 -2.820000000000E-01  8.800000000000E-02  3.040000000000E-01
H70  2.820000000000E-01 -8.800000000000E-02 -3.040000000000E-01
H71 -3.000000000000E-01  2.650000000000E-01  4.530000000000E-01
H72  3.000000000000E-01 -2.650000000000E-01 -4.530000000000E-01


#===END

data_OPT_STEP_3

_symmetry_space_group_name_H-M 'P 1'
_cell_length_a      7.89007590
_cell_length_b      6.07693898
_cell_length_c     16.02004458
_cell_angle_alpha  101.906890
_cell_angle_beta  112.455010
_cell_angle_gamma   85.762878

loop_
_atom_site_label
_atom_site_fract_x
_atom_site_fract_y
_atom_site_fract_z
C1  1.441593600642E-01  2.177101250526E-02  4.074238876939E-01
C2 -1.441593600642E-01 -2.177101250526E-02 -4.074238876939E-01
C3 -1.395022347367E-02 -2.656844355194E-01  2.792226628386E-01
C4  1.395022347367E-02  2.656844355194E-01 -2.792226628386E-01
C5  5.125302964458E-02 -1.806931034306E-01  3.711471036846E-01
C6 -5.125302964458E-02  1.806931034306E-01 -3.711471036846E-01
C7  1.684666550367E-01  1.389541429252E-01  3.495292758188E-01
C8 -1.684666550367E-01 -1.389541429252E-01 -3.495292758188E-01
C9  1.024994654401E-01  6.141951089580E-02  2.513414678093E-01
C10 -1.024994654401E-01 -6.141951089580E-02 -2.513414678093E-01
C11  1.245558426991E-01  1.695078657972E-01  1.898489693161E-01
C12 -1.245558426991E-01 -1.695078657972E-01 -1.898489693161E-01
C13  6.021593377261E-02  9.394759076484E-02  9.541824476296E-02
C14 -6.021593377261E-02 -9.394759076484E-02 -9.541824476296E-02
C15  9.036549595939E-02  2.118252821381E-01  3.350652721988E-02
C16 -9.036549595939E-02 -2.118252821381E-01 -3.350652721988E-02
C17 -2.511144438036E-02 -1.217425131566E-01  5.703054577587E-02
C18  2.511144438036E-02  1.217425131566E-01 -5.703054577587E-02
C19 -5.265387102401E-02 -2.345840244349E-01  1.228516388947E-01
C20  5.265387102401E-02  2.345840244349E-01 -1.228516388947E-01
C21  1.232042807054E-02 -1.504006748715E-01  2.152656828466E-01
C22 -1.232042807054E-02  1.504006748715E-01 -2.152656828466E-01
H23  1.961893435110E-01  9.110778334067E-02  4.821947941072E-01
H24 -1.961893435110E-01 -9.110778334067E-02 -4.821947941072E-01
H25 -8.295116554071E-02 -4.296811815199E-01  2.517641690635E-01
H26  8.295116554071E-02  4.296811815199E-01 -2.517641690635E-01
H27  3.327156480837E-02 -2.736309480403E-01  4.204222714538E-01
H28 -3.327156480837E-02  2.736309480403E-01 -4.204222714538E-01
H29  2.424918024846E-01  2.981231601520E-01  3.709230265426E-01
H30 -2.424918024846E-01 -2.981231601520E-01 -3.709230265426E-01
H31  1.935324722393E-01  3.300706753064E-01  2.179586739114E-01
H32 -1.935324722393E-01 -3.300706753064E-01 -2.179586739114E-01
H33  1.556191783625E-01  3.683893254548E-01  6.069611224934E-02
H34 -1.556191783625E-01 -3.683893254548E-01 -6.069611224934E-02
H35 -1.186833882966E-01 -3.985356392649E-01  9.826521317423E-02
H36  1.186833882966E-01  3.985356392649E-01 -9.826521317423E-02
C37 -4.366879788393E-01 -4.280287113396E-01  4.015486156465E-01
C38  4.366879788393E-01  4.280287113396E-01 -4.015486156465E-01
C39 -4.963661877545E-01 -3.204905747763E-01  3.288739943547E-01
C40  4.963661877545E-01  3.204905747763E-01 -3.288739943547E-01
C41 -4.808208272347E-01 -4.147776081076E-01  2.430772625249E-01
C42  4.808208272347E-01  4.147776081076E-01 -2.430772625249E-01
C43  4.584888634143E-01 -3.003339996396E-01  1.688647273631E-01
C44 -4.584888634143E-01  3.003339996396E-01 -1.688647273631E-01
C45  4.793245559767E-01 -3.956905115190E-01  8.439084851121E-02
C46 -4.793245559767E-01  3.956905115190E-01 -8.439084851121E-02
C47  4.239599535590E-01 -2.855308001786E-01  1.047418375323E-02
C48 -4.239599535590E-01  2.855308001786E-01 -1.047418375323E-02
C49 -4.403483449944E-01  3.774145779571E-01  7.463985702893E-02
C50  4.403483449944E-01 -3.774145779571E-01 -7.463985702893E-02
C51 -3.891582621104E-01  2.720787979354E-01  1.480582397714E-01
C52  3.891582621104E-01 -2.720787979354E-01 -1.480582397714E-01
C53 -3.983002781145E-01  3.615957243855E-01  2.332086638688E-01
C54  3.983002781145E-01 -3.615957243855E-01 -2.332086638688E-01
C55 -3.423492236375E-01  2.560203553349E-01  3.097399011259E-01
C56  3.423492236375E-01 -2.560203553349E-01 -3.097399011259E-01
C57 -3.517714984541E-01  3.472947407025E-01  3.922752695769E-01
C58  3.517714984541E-01 -3.472947407025E-01 -3.922752695769E-01
H59 -4.452067147948E-01 -3.407811562063E-01  4.745782259921E-01
H60  4.452067147948E-01  3.407811562063E-01 -4.745782259921E-01
H61  4.444664275449E-01 -1.496122254355E-01  3.351330740941E-01
H62 -4.444664275449E-01  1.496122254355E-01 -3.351330740941E-01
H63  3.998311447576E-01 -1.294104119589E-01  1.780933081192E-01
H64 -3.998311447576E-01  1.294104119589E-01 -1.780933081192E-01
H65  3.631898493722E-01 -1.127924932194E-01  2.054659545903E-02
H66 -3.631898493722E-01  1.127924932194E-01 -2.054659545903E-02
H67 -3.255039767574E-01  1.025752142958E-01  1.417026049398E-01
H68  3.255039767574E-01 -1.025752142958E-01 -1.417026049398E-01
H69 -2.756577587090E-01  8.924636599047E-02  3.047442187279E-01
H70  2.756577587090E-01 -8.924636599047E-02 -3.047442187279E-01
H71 -3.008998350410E-01  2.641966848597E-01  4.527685332582E-01
H72  3.008998350410E-01 -2.641966848597E-01 -4.527685332582E-01


#===END

data_OPT_STEP_4

_symmetry_space_group_name_H-M 'P 1'
_cell_length_a      7.85749313
_cell_length_b      6.12024613
_cell_length_c     16.02322841
_cell_angle_alpha  101.376724
_cell_angle_beta  112.470936
_cell_angle_gamma   87.112047

loop_
_atom_site_label
_atom_site_fract_x
_atom_site_fract_y
_atom_site_fract_z
C1  1.376703066289E-01  2.123862765343E-02  4.069609604103E-01
C2 -1.376703066289E-01 -2.123862765343E-02 -4.069609604103E-01
C3 -1.391817828329E-02 -2.730744056446E-01  2.787640857189E-01
C4  1.391817828329E-02  2.730744056446E-01 -2.787640857189E-01
C5  4.881535044480E-02 -1.867146272911E-01  3.706460553802E-01
C6 -4.881535044480E-02  1.867146272911E-01 -3.706460553802E-01
C7  1.611501139203E-01  1.411672465008E-01  3.492194933891E-01
C8 -1.611501139203E-01 -1.411672465008E-01 -3.492194933891E-01
C9  9.685243576427E-02  6.237464283603E-02  2.510749734119E-01
C10 -9.685243576427E-02 -6.237464283603E-02 -2.510749734119E-01
C11  1.164009030744E-01  1.753312197223E-01  1.896427981741E-01
C12 -1.164009030744E-01 -1.753312197223E-01 -1.896427981741E-01
C13  5.560134316026E-02  9.610070646083E-02  9.512411765284E-02
C14 -5.560134316026E-02 -9.610070646083E-02 -9.512411765284E-02
C15  8.467681954870E-02  2.169524079335E-01  3.345490944181E-02
C16 -8.467681954870E-02 -2.169524079335E-01 -3.345490944181E-02
C17 -2.467872538177E-02 -1.234194350982E-01  5.728206850933E-02
C18  2.467872538177E-02  1.234194350982E-01 -5.728206850933E-02
C19 -5.192072286159E-02 -2.393633181461E-01  1.225256501356E-01
C20  5.192072286159E-02  2.393633181461E-01 -1.225256501356E-01
C21  1.082745243213E-02 -1.538109578992E-01  2.150414829287E-01
C22 -1.082745243213E-02  1.538109578992E-01 -2.150414829287E-01
H23  1.883762060629E-01  9.073296556839E-02  4.816951158472E-01
H24 -1.883762060629E-01 -9.073296556839E-02 -4.816951158472E-01
H25 -8.066292316633E-02 -4.394045982869E-01  2.512951130687E-01
H26  8.066292316633E-02  4.394045982869E-01 -2.512951130687E-01
H27  3.126330183041E-02 -2.818307942174E-01  4.196057163214E-01
H28 -3.126330183041E-02  2.818307942174E-01 -4.196057163214E-01
H29  2.344483671539E-01  3.025254958865E-01  3.713091810596E-01
H30 -2.344483671539E-01 -3.025254958865E-01 -3.713091810596E-01
H31  1.821516185272E-01  3.397323098371E-01  2.175642490527E-01
H32 -1.821516185272E-01 -3.397323098371E-01 -2.175642490527E-01
H33  1.453485192376E-01  3.784967340841E-01  6.047206085393E-02
H34 -1.453485192376E-01 -3.784967340841E-01 -6.047206085393E-02
H35 -1.171317519294E-01 -4.049874173763E-01  9.757309577291E-02
H36  1.171317519294E-01  4.049874173763E-01 -9.757309577291E-02
C37 -4.352732631103E-01 -4.298043811741E-01  4.016132695299E-01
C38  4.352732631103E-01  4.298043811741E-01 -4.016132695299E-01
C39 -4.947074529318E-01 -3.233235729744E-01  3.287516336946E-01
C40  4.947074529318E-01  3.233235729744E-01 -3.287516336946E-01
C41 -4.810176802823E-01 -4.172597158499E-01  2.427521350828E-01
C42  4.810176802823E-01  4.172597158499E-01 -2.427521350828E-01
C43  4.585847023739E-01 -3.047472726759E-01  1.682950090185E-01
C44 -4.585847023739E-01  3.047472726759E-01 -1.682950090185E-01
C45  4.788642111759E-01 -3.982500049971E-01  8.399678577752E-02
C46 -4.788642111759E-01  3.982500049971E-01 -8.399678577752E-02
C47  4.235002734248E-01 -2.891983297431E-01  9.789491920178E-03
C48 -4.235002734248E-01  2.891983297431E-01 -9.789491920178E-03
C49 -4.403197468453E-01  3.792528747504E-01  7.492502247440E-02
C50  4.403197468453E-01 -3.792528747504E-01 -7.492502247440E-02
C51 -3.875643569762E-01  2.750324573026E-01  1.489884171708E-01
C52  3.875643569762E-01 -2.750324573026E-01 -1.489884171708E-01
C53 -3.982676994157E-01  3.633307270887E-01  2.336102360467E-01
C54  3.982676994157E-01 -3.633307270887E-01 -2.336102360467E-01
C55 -3.419071753669E-01  2.588149881529E-01  3.105514129228E-01
C56  3.419071753669E-01 -2.588149881529E-01 -3.105514129228E-01
C57 -3.515673669315E-01  3.495876598711E-01  3.928262625432E-01
C58  3.515673669315E-01 -3.495876598711E-01 -3.928262625432E-01
H59 -4.413110914973E-01 -3.436352738208E-01  4.741777541132E-01
H60  4.413110914973E-01  3.436352738208E-01 -4.741777541132E-01
H61  4.486699704173E-01 -1.540573382084E-01  3.351249376224E-01
H62 -4.486699704173E-01  1.540573382084E-01 -3.351249376224E-01
H63  4.007519209757E-01 -1.363527082810E-01  1.771209053232E-01
H64 -4.007519209757E-01  1.363527082810E-01 -1.771209053232E-01
H65  3.626535572348E-01 -1.198261170324E-01  1.916936863275E-02
H66 -3.626535572348E-01  1.198261170324E-01 -1.916936863275E-02
H67 -3.240668146655E-01  1.085007524301E-01  1.430538155504E-01
H68  3.240668146655E-01 -1.085007524301E-01 -1.430538155504E-01
H69 -2.784212992303E-01  9.316924051037E-02  3.053666839553E-01
H70  2.784212992303E-01 -9.316924051037E-02 -3.053666839553E-01
H71 -3.006759237659E-01  2.678163506776E-01  4.534895092449E-01
H72  3.006759237659E-01 -2.678163506776E-01 -4.534895092449E-01


#===END

data_OPT_STEP_5

_symmetry_space_group_name_H-M 'P 1'
_cell_length_a      7.74320328
_cell_length_b      6.20518929
_cell_length_c     16.03862140
_cell_angle_alpha  101.076428
_cell_angle_beta  112.445250
_cell_angle_gamma   87.484640

loop_
_atom_site_label
_atom_site_fract_x
_atom_site_fract_y
_atom_site_fract_z
C1  1.298124526073E-01  2.882064346226E-02  4.072799899205E-01
C2 -1.298124526073E-01 -2.882064346226E-02 -4.072799899205E-01
C3  1.380771878445E-03 -2.842498567182E-01  2.804401372526E-01
C4 -1.380771878445E-03  2.842498567182E-01 -2.804401372526E-01
C5  5.874059801623E-02 -1.952354993645E-01  3.721563973797E-01
C6 -5.874059801623E-02  1.952354993645E-01 -3.721563973797E-01
C7  1.469678526399E-01  1.550674304205E-01  3.491193441027E-01
C8 -1.469678526399E-01 -1.550674304205E-01 -3.491193441027E-01
C9  9.596121275771E-02  6.443462800135E-02  2.516276156834E-01
C10 -9.596121275771E-02 -6.443462800135E-02 -2.516276156834E-01
C11  1.020866599044E-01  1.908276028400E-01  1.893514770960E-01
C12 -1.020866599044E-01 -1.908276028400E-01 -1.893514770960E-01
C13  4.506932551368E-02  1.036718218425E-01  9.441007310420E-02
C14 -4.506932551368E-02 -1.036718218425E-01 -9.441007310420E-02
C15  7.400252337237E-02  2.210424355677E-01  3.274812709963E-02
C16 -7.400252337237E-02 -2.210424355677E-01 -3.274812709963E-02
C17 -2.174172227124E-02 -1.243320679106E-01  5.928937474509E-02
C18  2.174172227124E-02  1.243320679106E-01 -5.928937474509E-02
C19 -3.973850616183E-02 -2.473509986627E-01  1.236837645777E-01
C20  3.973850616183E-02  2.473509986627E-01 -1.236837645777E-01
C21  2.388616256481E-02 -1.621891175442E-01  2.168334568706E-01
C22 -2.388616256481E-02  1.621891175442E-01 -2.168334568706E-01
H23  1.780646404697E-01  9.711349995060E-02  4.820491916123E-01
H24 -1.780646404697E-01 -9.711349995060E-02 -4.820491916123E-01
H25 -6.064766872853E-02 -4.530104366201E-01  2.534329593146E-01
H26  6.064766872853E-02  4.530104366201E-01 -2.534329593146E-01
H27  3.950449739414E-02 -2.909719813731E-01  4.201159647992E-01
H28 -3.950449739414E-02  2.909719813731E-01 -4.201159647992E-01
H29  2.074406831689E-01  3.274491539349E-01  3.739632944707E-01
H30 -2.074406831689E-01 -3.274491539349E-01 -3.739632944707E-01
H31  1.581955514112E-01  3.627403206692E-01  2.154921753141E-01
H32 -1.581955514112E-01 -3.627403206692E-01 -2.154921753141E-01
H33  1.097408557969E-01  4.024397304355E-01  5.736198407861E-02
H34 -1.097408557969E-01 -4.024397304355E-01 -5.736198407861E-02
H35 -9.730915822547E-02 -4.185517367917E-01  9.814735671629E-02
H36  9.730915822547E-02  4.185517367917E-01 -9.814735671629E-02
C37 -4.351573628726E-01 -4.308388448401E-01  4.018593885005E-01
C38  4.351573628726E-01  4.308388448401E-01 -4.018593885005E-01
C39  4.977526586537E-01 -3.253454259411E-01  3.282275741740E-01
C40 -4.977526586537E-01  3.253454259411E-01 -3.282275741740E-01
C41 -4.866699938743E-01 -4.196329422839E-01  2.418375482416E-01
C42  4.866699938743E-01  4.196329422839E-01 -2.418375482416E-01
C43  4.560543169025E-01 -3.078416731358E-01  1.678450289219E-01
C44 -4.560543169025E-01  3.078416731358E-01 -1.678450289219E-01
C45  4.786066689964E-01 -3.997262309908E-01  8.397760092380E-02
C46 -4.786066689964E-01  3.997262309908E-01 -8.397760092380E-02
C47  4.260851184380E-01 -2.875444775813E-01  1.004286760258E-02
C48 -4.260851184380E-01  2.875444775813E-01 -1.004286760258E-02
C49 -4.487725289019E-01  3.765879878982E-01  7.329218143232E-02
C50  4.487725289019E-01 -3.765879878982E-01 -7.329218143232E-02
C51 -3.937034320299E-01  2.688518712866E-01  1.482241859794E-01
C52  3.937034320299E-01 -2.688518712866E-01 -1.482241859794E-01
C53 -4.084639691126E-01  3.606769719598E-01  2.318962081426E-01
C54  4.084639691126E-01 -3.606769719598E-01 -2.318962081426E-01
C55 -3.441203589427E-01  2.564659211273E-01  3.102737077356E-01
C56  3.441203589427E-01 -2.564659211273E-01 -3.102737077356E-01
C57 -3.575160854078E-01  3.516069633613E-01  3.919236532058E-01
C58  3.575160854078E-01 -3.516069633613E-01 -3.919236532058E-01
H59 -4.354536900581E-01 -3.513021251353E-01  4.719931295128E-01
H60  4.354536900581E-01  3.513021251353E-01 -4.719931295128E-01
H61  4.343874752191E-01 -1.610885211340E-01  3.343312887600E-01
H62 -4.343874752191E-01  1.610885211340E-01 -3.343312887600E-01
H63  3.974715184985E-01 -1.413241223382E-01  1.758682571414E-01
H64 -3.974715184985E-01  1.413241223382E-01 -1.758682571414E-01
H65  3.670288062782E-01 -1.203238132209E-01  1.841554620510E-02
H66 -3.670288062782E-01  1.203238132209E-01 -1.841554620510E-02
H67 -3.278230253203E-01  1.057619654206E-01  1.425509406595E-01
H68  3.278230253203E-01 -1.057619654206E-01 -1.425509406595E-01
H69 -2.708344444954E-01  9.806237864797E-02  3.062505555794E-01
H70  2.708344444954E-01 -9.806237864797E-02 -3.062505555794E-01
H71 -3.074631205998E-01  2.692622634511E-01  4.520536937385E-01
H72  3.074631205998E-01 -2.692622634511E-01 -4.520536937385E-01


#===END

data_OPT_STEP_6

_symmetry_space_group_name_H-M 'P 1'
_cell_length_a      7.63912525
_cell_length_b      6.28949527
_cell_length_c     16.01320174
_cell_angle_alpha  100.232570
_cell_angle_beta  112.351655
_cell_angle_gamma   88.223035

loop_
_atom_site_label
_atom_site_fract_x
_atom_site_fract_y
_atom_site_fract_z
C1  1.276969933337E-01  3.326403898107E-02  4.083248978374E-01
C2 -1.276969933337E-01 -3.326403898107E-02 -4.083248978374E-01
C3 -9.126835415348E-03 -2.714077568095E-01  2.830527455920E-01
C4  9.126835415348E-03  2.714077568095E-01 -2.830527455920E-01
C5  5.430227941938E-02 -1.879684404056E-01  3.747775466054E-01
C6 -5.430227941938E-02  1.879684404056E-01 -3.747775466054E-01
C7  1.448987230752E-01  1.589123438641E-01  3.491784129958E-01
C8 -1.448987230752E-01 -1.589123438641E-01 -3.491784129958E-01
C9  9.574152922910E-02  6.676137269216E-02  2.521890818168E-01
C10 -9.574152922910E-02 -6.676137269216E-02 -2.521890818168E-01
C11  1.158423831143E-01  1.829167892427E-01  1.901651452653E-01
C12 -1.158423831143E-01 -1.829167892427E-01 -1.901651452653E-01
C13  5.906433606502E-02  9.558387519078E-02  9.512866430940E-02
C14 -5.906433606502E-02 -9.558387519078E-02 -9.512866430940E-02
C15  9.403538345856E-02  2.025252536870E-01  3.263047442178E-02
C16 -9.403538345856E-02 -2.025252536870E-01 -3.263047442178E-02
C17 -2.940400597858E-02 -1.198171643677E-01  6.081184572217E-02
C18  2.940400597858E-02  1.198171643677E-01 -6.081184572217E-02
C19 -5.368747922060E-02 -2.345140631442E-01  1.248471717233E-01
C20  5.368747922060E-02  2.345140631442E-01 -1.248471717233E-01
C21  1.091195374473E-02 -1.504359149965E-01  2.182020961062E-01
C22 -1.091195374473E-02  1.504359149965E-01 -2.182020961062E-01
H23  1.722138815363E-01  1.016616880328E-01  4.828144903879E-01
H24 -1.722138815363E-01 -1.016616880328E-01 -4.828144903879E-01
H25 -7.322602782628E-02 -4.373750441280E-01  2.569851709823E-01
H26  7.322602782628E-02  4.373750441280E-01 -2.569851709823E-01
H27  3.508198707416E-02 -2.837682413344E-01  4.228182941849E-01
H28 -3.508198707416E-02  2.837682413344E-01 -4.228182941849E-01
H29  1.957433653080E-01  3.375564944809E-01  3.749382385253E-01
H30 -1.957433653080E-01 -3.375564944809E-01 -3.749382385253E-01
H31  1.800054243122E-01  3.473204903677E-01  2.152219761087E-01
H32 -1.800054243122E-01 -3.473204903677E-01 -2.152219761087E-01
H33  1.524190357345E-01  3.672170179633E-01  5.711662476871E-02
H34 -1.524190357345E-01 -3.672170179633E-01 -5.711662476871E-02
H35 -1.158605461908E-01 -4.020218586050E-01  9.950454473068E-02
H36  1.158605461908E-01  4.020218586050E-01 -9.950454473068E-02
C37 -4.310859915890E-01 -4.270652336616E-01  4.030621276543E-01
C38  4.310859915890E-01  4.270652336616E-01 -4.030621276543E-01
C39  4.991631507614E-01 -3.215911382188E-01  3.288342506669E-01
C40 -4.991631507614E-01  3.215911382188E-01 -3.288342506669E-01
C41 -4.867302824164E-01 -4.177225721014E-01  2.419801741266E-01
C42  4.867302824164E-01  4.177225721014E-01 -2.419801741266E-01
C43  4.568006151790E-01 -3.085187241511E-01  1.673768755780E-01
C44 -4.568006151790E-01  3.085187241511E-01 -1.673768755780E-01
C45  4.782178111612E-01 -4.010022601513E-01  8.353946509398E-02
C46 -4.782178111612E-01  4.010022601513E-01 -8.353946509398E-02
C47  4.281101671282E-01 -2.877760814552E-01  9.177733148928E-03
C48 -4.281101671282E-01  2.877760814552E-01 -9.177733148928E-03
C49 -4.523693898697E-01  3.780672312024E-01  7.336204581679E-02
C50  4.523693898697E-01 -3.780672312024E-01 -7.336204581679E-02
C51 -4.004430620976E-01  2.665747578148E-01  1.486527766147E-01
C52  4.004430620976E-01 -2.665747578148E-01 -1.486527766147E-01
C53 -4.158593689851E-01  3.618057632684E-01  2.317177160418E-01
C54  4.158593689851E-01 -3.618057632684E-01 -2.317177160418E-01
C55 -3.494545753867E-01  2.568933748479E-01  3.110340492017E-01
C56  3.494545753867E-01 -2.568933748479E-01 -3.110340492017E-01
C57 -3.590280876519E-01  3.583733120058E-01  3.929876111827E-01
C58  3.590280876519E-01 -3.583733120058E-01 -3.929876111827E-01
H59 -4.339700477988E-01 -3.554825479251E-01  4.699602141666E-01
H60  4.339700477988E-01  3.554825479251E-01 -4.699602141666E-01
H61  4.327144199113E-01 -1.611871362512E-01  3.342667690400E-01
H62 -4.327144199113E-01  1.611871362512E-01 -3.342667690400E-01
H63  3.963017757746E-01 -1.450152935551E-01  1.736633444601E-01
H64 -3.963017757746E-01  1.450152935551E-01 -1.736633444601E-01
H65  3.728146462893E-01 -1.218688675110E-01  1.647653321461E-02
H66 -3.728146462893E-01  1.218688675110E-01 -1.647653321461E-02
H67 -3.380950618499E-01  1.042452652914E-01  1.428987553805E-01
H68  3.380950618499E-01 -1.042452652914E-01 -1.428987553805E-01
H69 -2.758533261266E-01  1.011280292315E-01  3.072347027054E-01
H70  2.758533261266E-01 -1.011280292315E-01 -3.072347027054E-01
H71 -3.099022090231E-01  2.751510769616E-01  4.530078093898E-01
H72  3.099022090231E-01 -2.751510769616E-01 -4.530078093898E-01


#===END

data_OPT_STEP_7

_symmetry_space_group_name_H-M 'P 1'
_cell_length_a      7.62682915
_cell_length_b      6.29673364
_cell_length_c     16.01311042
_cell_angle_alpha  100.292940
_cell_angle_beta  112.375691
_cell_angle_gamma   88.193302

loop_
_atom_site_label
_atom_site_fract_x
_atom_site_fract_y
_atom_site_fract_z
C1  1.276170824410E-01  3.334025726195E-02  4.085419362978E-01
C2 -1.276170824410E-01 -3.334025726195E-02 -4.085419362978E-01
C3 -7.080107329019E-03 -2.724592644711E-01  2.836284220446E-01
C4  7.080107329019E-03  2.724592644711E-01 -2.836284220446E-01
C5  5.251128449025E-02 -1.860750700784E-01  3.752002526193E-01
C6 -5.251128449025E-02  1.860750700784E-01 -3.752002526193E-01
C7  1.448056104454E-01  1.583251804239E-01  3.492311664727E-01
C8 -1.448056104454E-01 -1.583251804239E-01 -3.492311664727E-01
C9  9.015466871195E-02  7.016870176835E-02  2.521242407440E-01
C10 -9.015466871195E-02 -7.016870176835E-02 -2.521242407440E-01
C11  1.132975621542E-01  1.843618358230E-01  1.903882425323E-01
C12 -1.132975621542E-01 -1.843618358230E-01 -1.903882425323E-01
C13  6.024186872985E-02  9.398257385589E-02  9.537404193061E-02
C14 -6.024186872985E-02 -9.398257385589E-02 -9.537404193061E-02
C15  8.404769600081E-02  2.089848311234E-01  3.214764607351E-02
C16 -8.404769600081E-02 -2.089848311234E-01 -3.214764607351E-02
C17 -2.555626751567E-02 -1.231644337981E-01  6.146766049345E-02
C18  2.555626751567E-02  1.231644337981E-01 -6.146766049345E-02
C19 -4.931610051353E-02 -2.381225341693E-01  1.251858007130E-01
C20  4.931610051353E-02  2.381225341693E-01 -1.251858007130E-01
C21  8.126083449180E-03 -1.486210374998E-01  2.184136747306E-01
C22 -8.126083449180E-03  1.486210374998E-01 -2.184136747306E-01
H23  1.684465628408E-01  1.036973606274E-01  4.828696347502E-01
H24 -1.684465628408E-01 -1.036973606274E-01 -4.828696347502E-01
H25 -6.747481646515E-02 -4.407087900682E-01  2.578267307045E-01
H26  6.747481646515E-02  4.407087900682E-01 -2.578267307045E-01
H27  3.385213880733E-02 -2.823949481250E-01  4.231612339214E-01
H28 -3.385213880733E-02  2.823949481250E-01 -4.231612339214E-01
H29  1.958557557839E-01  3.354688561414E-01  3.748189410493E-01
H30 -1.958557557839E-01 -3.354688561414E-01 -3.748189410493E-01
H31  1.734223682222E-01  3.513990871005E-01  2.151069007988E-01
H32 -1.734223682222E-01 -3.513990871005E-01 -2.151069007988E-01
H33  1.451197615880E-01  3.716143708831E-01  5.671352399676E-02
H34 -1.451197615880E-01 -3.716143708831E-01 -5.671352399676E-02
H35 -1.097625691777E-01 -4.066759787564E-01  9.987570256180E-02
H36  1.097625691777E-01  4.066759787564E-01 -9.987570256180E-02
C37 -4.328274807044E-01 -4.279234107481E-01  4.026252770839E-01
C38  4.328274807044E-01  4.279234107481E-01 -4.026252770839E-01
C39  4.990965916207E-01 -3.211204195737E-01  3.288448017324E-01
C40 -4.990965916207E-01  3.211204195737E-01 -3.288448017324E-01
C41 -4.883742228365E-01 -4.186184085241E-01  2.416441043579E-01
C42  4.883742228365E-01  4.186184085241E-01 -2.416441043579E-01
C43  4.556274414000E-01 -3.093889609258E-01  1.671883087345E-01
C44 -4.556274414000E-01  3.093889609258E-01 -1.671883087345E-01
C45  4.762814835388E-01 -4.022660093750E-01  8.316517495444E-02
C46 -4.762814835388E-01  4.022660093750E-01 -8.316517495444E-02
C47  4.269987317285E-01 -2.883535122541E-01  8.969836614453E-03
C48 -4.269987317285E-01  2.883535122541E-01 -8.969836614453E-03
C49 -4.492140546626E-01  3.804620947646E-01  7.389796494160E-02
C50  4.492140546626E-01 -3.804620947646E-01 -7.389796494160E-02
C51 -3.975941329850E-01  2.678927897395E-01  1.492012551917E-01
C52  3.975941329850E-01 -2.678927897395E-01 -1.492012551917E-01
C53 -4.130156450755E-01  3.641533847592E-01  2.322172068394E-01
C54  4.130156450755E-01 -3.641533847592E-01 -2.322172068394E-01
C55 -3.485150819625E-01  2.572941654512E-01  3.110622458339E-01
C56  3.485150819625E-01 -2.572941654512E-01 -3.110622458339E-01
C57 -3.581092851946E-01  3.598098676252E-01  3.930090745104E-01
C58  3.581092851946E-01 -3.598098676252E-01 -3.930090745104E-01
H59 -4.369311719490E-01 -3.565529224888E-01  4.689192109307E-01
H60  4.369311719490E-01  3.565529224888E-01 -4.689192109307E-01
H61  4.356793361318E-01 -1.593121975713E-01  3.350031320734E-01
H62 -4.356793361318E-01  1.593121975713E-01 -3.350031320734E-01
H63  3.961654327801E-01 -1.453228255892E-01  1.736235989656E-01
H64 -3.961654327801E-01  1.453228255892E-01 -1.736235989656E-01
H65  3.722139957014E-01 -1.224796107285E-01  1.624955077895E-02
H66 -3.722139957014E-01  1.224796107285E-01 -1.624955077895E-02
H67 -3.388370503106E-01  1.036819591925E-01  1.426410468690E-01
H68  3.388370503106E-01 -1.036819591925E-01 -1.426410468690E-01
H69 -2.820981282026E-01  9.753156458732E-02  3.057179321253E-01
H70  2.820981282026E-01 -9.753156458732E-02 -3.057179321253E-01
H71 -3.093622703294E-01  2.757935386311E-01  4.528468977550E-01
H72  3.093622703294E-01 -2.757935386311E-01 -4.528468977550E-01


#===END

data_OPT_STEP_8

_symmetry_space_group_name_H-M 'P 1'
_cell_length_a      7.61375551
_cell_length_b      6.30232827
_cell_length_c     16.00936058
_cell_angle_alpha  100.240108
_cell_angle_beta  112.410383
_cell_angle_gamma   88.133951

loop_
_atom_site_label
_atom_site_fract_x
_atom_site_fract_y
_atom_site_fract_z
C1  1.237325042362E-01  3.719441210441E-02  4.085810619929E-01
C2 -1.237325042362E-01 -3.719441210441E-02 -4.085810619929E-01
C3 -1.057666688093E-02 -2.686208648495E-01  2.841258052858E-01
C4  1.057666688093E-02  2.686208648495E-01 -2.841258052858E-01
C5  4.729164927037E-02 -1.804244492371E-01  3.756520542287E-01
C6 -4.729164927037E-02  1.804244492371E-01 -3.756520542287E-01
C7  1.443701148918E-01  1.582707982139E-01  3.490685644106E-01
C8 -1.443701148918E-01 -1.582707982139E-01 -3.490685644106E-01
C9  9.148133674509E-02  6.873339526294E-02  2.522481156480E-01
C10 -9.148133674509E-02 -6.873339526294E-02 -2.522481156480E-01
C11  1.156671961220E-01  1.825231821643E-01  1.904524491952E-01
C12 -1.156671961220E-01 -1.825231821643E-01 -1.904524491952E-01
C13  5.967356682027E-02  9.485628023994E-02  9.540616499333E-02
C14 -5.967356682027E-02 -9.485628023994E-02 -9.540616499333E-02
C15  8.324656040784E-02  2.102200125965E-01  3.220541071692E-02
C16 -8.324656040784E-02 -2.102200125965E-01 -3.220541071692E-02
C17 -3.008051065286E-02 -1.205917188894E-01  6.141783440365E-02
C18  3.008051065286E-02  1.205917188894E-01 -6.141783440365E-02
C19 -4.878457460549E-02 -2.388541491094E-01  1.257663054894E-01
C20  4.878457460549E-02  2.388541491094E-01 -1.257663054894E-01
C21  1.002803107556E-02 -1.502150252075E-01  2.190226038389E-01
C22 -1.002803107556E-02  1.502150252075E-01 -2.190226038389E-01
H23  1.676346778223E-01  1.052812563263E-01  4.829348332847E-01
H24 -1.676346778223E-01 -1.052812563263E-01 -4.829348332847E-01
H25 -7.736137528210E-02 -4.324315039399E-01  2.581552911392E-01
H26  7.736137528210E-02  4.324315039399E-01 -2.581552911392E-01
H27  3.162874877401E-02 -2.785583346753E-01  4.239280507433E-01
H28 -3.162874877401E-02  2.785583346753E-01 -4.239280507433E-01
H29  2.019748408706E-01  3.278653930196E-01  3.736561308167E-01
H30 -2.019748408706E-01 -3.278653930196E-01 -3.736561308167E-01
H31  1.793879215345E-01  3.467870707599E-01  2.151978698791E-01
H32 -1.793879215345E-01 -3.467870707599E-01 -2.151978698791E-01
H33  1.441003754677E-01  3.736986739097E-01  5.659864246740E-02
H34 -1.441003754677E-01 -3.736986739097E-01 -5.659864246740E-02
H35 -1.144862475074E-01 -4.036462327236E-01  1.003623676474E-01
H36  1.144862475074E-01  4.036462327236E-01 -1.003623676474E-01
C37 -4.352579254780E-01 -4.292872321396E-01  4.018080780174E-01
C38  4.352579254780E-01  4.292872321396E-01 -4.018080780174E-01
C39 -4.997872067399E-01 -3.212096032741E-01  3.285691957961E-01
C40  4.997872067399E-01  3.212096032741E-01 -3.285691957961E-01
C41 -4.871007571368E-01 -4.183881230077E-01  2.416741890598E-01
C42  4.871007571368E-01  4.183881230077E-01 -2.416741890598E-01
C43  4.576917116696E-01 -3.087150959675E-01  1.673455859323E-01
C44 -4.576917116696E-01  3.087150959675E-01 -1.673455859323E-01
C45  4.772474725384E-01 -4.019068796185E-01  8.320659515227E-02
C46 -4.772474725384E-01  4.019068796185E-01 -8.320659515227E-02
C47  4.278677286891E-01 -2.884764886264E-01  8.943516857776E-03
C48 -4.278677286891E-01  2.884764886264E-01 -8.943516857776E-03
C49 -4.488298586352E-01  3.812739622782E-01  7.401852853883E-02
C50  4.488298586352E-01 -3.812739622782E-01 -7.401852853883E-02
C51 -3.964362548615E-01  2.692775224502E-01  1.496471012996E-01
C52  3.964362548615E-01 -2.692775224502E-01 -1.496471012996E-01
C53 -4.105910000084E-01  3.658252544082E-01  2.327443020090E-01
C54  4.105910000084E-01 -3.658252544082E-01 -2.327443020090E-01
C55 -3.479476396304E-01  2.578065103104E-01  3.112924116544E-01
C56  3.479476396304E-01 -2.578065103104E-01 -3.112924116544E-01
C57 -3.596638511070E-01  3.586881512930E-01  3.927502822782E-01
C58  3.596638511070E-01 -3.586881512930E-01 -3.927502822782E-01
H59 -4.419510337534E-01 -3.561502901465E-01  4.681007784351E-01
H60  4.419510337534E-01  3.561502901465E-01 -4.681007784351E-01
H61  4.389731972327E-01 -1.586431728405E-01  3.349512536428E-01
H62 -4.389731972327E-01  1.586431728405E-01 -3.349512536428E-01
H63  3.989934872590E-01 -1.444768425304E-01  1.738166017899E-01
H64 -3.989934872590E-01  1.444768425304E-01 -1.738166017899E-01
H65  3.699479636156E-01 -1.245481551450E-01  1.556743574000E-02
H66 -3.699479636156E-01  1.245481551450E-01 -1.556743574000E-02
H67 -3.387765995031E-01  1.047464007024E-01  1.429282900950E-01
H68  3.387765995031E-01 -1.047464007024E-01 -1.429282900950E-01
H69 -2.862206963527E-01  9.560070353879E-02  3.051852845275E-01
H70  2.862206963527E-01 -9.560070353879E-02 -3.051852845275E-01
H71 -3.104662031057E-01  2.747418180099E-01  4.527807522008E-01
H72  3.104662031057E-01 -2.747418180099E-01 -4.527807522008E-01


#===END

data_OPT_STEP_9

_symmetry_space_group_name_H-M 'P 1'
_cell_length_a      7.58858994
_cell_length_b      6.32620021
_cell_length_c     16.01671893
_cell_angle_alpha  100.292272
_cell_angle_beta  112.460592
_cell_angle_gamma   88.040034

loop_
_atom_site_label
_atom_site_fract_x
_atom_site_fract_y
_atom_site_fract_z
C1  1.214245117455E-01  3.888635622016E-02  4.083764122776E-01
C2 -1.214245117455E-01 -3.888635622016E-02 -4.083764122776E-01
C3 -9.680113825390E-03 -2.694434817127E-01  2.841447266942E-01
C4  9.680113825390E-03  2.694434817127E-01 -2.841447266942E-01
C5  4.546559503989E-02 -1.787624029171E-01  3.755777402646E-01
C6 -4.546559503989E-02  1.787624029171E-01 -3.755777402646E-01
C7  1.428134561152E-01  1.586257792118E-01  3.488906774271E-01
C8 -1.428134561152E-01 -1.586257792118E-01 -3.488906774271E-01
C9  9.033451883233E-02  6.885117317396E-02  2.521600264102E-01
C10 -9.033451883233E-02 -6.885117317396E-02 -2.521600264102E-01
C11  1.107979502750E-01  1.858462295233E-01  1.901333410805E-01
C12 -1.107979502750E-01 -1.858462295233E-01 -1.901333410805E-01
C13  5.694665763088E-02  9.619214646133E-02  9.514209021402E-02
C14 -5.694665763088E-02 -9.619214646133E-02 -9.514209021402E-02
C15  8.119632150068E-02  2.114435411192E-01  3.217504898942E-02
C16 -8.119632150068E-02 -2.114435411192E-01 -3.217504898942E-02
C17 -2.683680413077E-02 -1.222562081182E-01  6.160363993458E-02
C18  2.683680413077E-02  1.222562081182E-01 -6.160363993458E-02
C19 -4.695660710927E-02 -2.399683844364E-01  1.258064809357E-01
C20  4.695660710927E-02  2.399683844364E-01 -1.258064809357E-01
C21  9.361128149667E-03 -1.500479899005E-01  2.189562046319E-01
C22 -9.361128149667E-03  1.500479899005E-01 -2.189562046319E-01
H23  1.641571788939E-01  1.079816857658E-01  4.825356431011E-01
H24 -1.641571788939E-01 -1.079816857658E-01 -4.825356431011E-01
H25 -7.037858607060E-02 -4.368063616824E-01  2.586681596705E-01
H26  7.037858607060E-02  4.368063616824E-01 -2.586681596705E-01
H27  3.083784857083E-02 -2.763355111342E-01  4.241854437137E-01
H28 -3.083784857083E-02  2.763355111342E-01 -4.241854437137E-01
H29  2.019638893377E-01  3.256730830797E-01  3.730912624121E-01
H30 -2.019638893377E-01 -3.256730830797E-01 -3.730912624121E-01
H31  1.716122083972E-01  3.522544807615E-01  2.147928373362E-01
H32 -1.716122083972E-01 -3.522544807615E-01 -2.147928373362E-01
H33  1.447692868933E-01  3.737516397649E-01  5.688463265072E-02
H34 -1.447692868933E-01 -3.737516397649E-01 -5.688463265072E-02
H35 -1.105345444938E-01 -4.056355193269E-01  1.006304070476E-01
H36  1.105345444938E-01  4.056355193269E-01 -1.006304070476E-01
C37 -4.375927818837E-01 -4.325878264401E-01  4.008135091699E-01
C38  4.375927818837E-01  4.325878264401E-01 -4.008135091699E-01
C39 -4.975375409680E-01 -3.227863284527E-01  3.284529720933E-01
C40  4.975375409680E-01  3.227863284527E-01 -3.284529720933E-01
C41 -4.847430534034E-01 -4.187926623127E-01  2.418038694621E-01
C42  4.847430534034E-01  4.187926623127E-01 -2.418038694621E-01
C43  4.589478196637E-01 -3.097548953262E-01  1.674615319696E-01
C44 -4.589478196637E-01  3.097548953262E-01 -1.674615319696E-01
C45  4.779400138887E-01 -4.022174316133E-01  8.327629370378E-02
C46 -4.779400138887E-01  4.022174316133E-01 -8.327629370378E-02
C47  4.266159854110E-01 -2.903872044581E-01  8.847207065663E-03
C48 -4.266159854110E-01  2.903872044581E-01 -8.847207065663E-03
C49 -4.479944539209E-01  3.818458248441E-01  7.396283147154E-02
C50  4.479944539209E-01 -3.818458248441E-01 -7.396283147154E-02
C51 -3.944810795350E-01  2.708542229001E-01  1.496877508589E-01
C52  3.944810795350E-01 -2.708542229001E-01 -1.496877508589E-01
C53 -4.109786296849E-01  3.647052546950E-01  2.323653821005E-01
C54  4.109786296849E-01 -3.647052546950E-01 -2.323653821005E-01
C55 -3.507221818177E-01  2.559033575037E-01  3.104033987631E-01
C56  3.507221818177E-01 -2.559033575037E-01 -3.104033987631E-01
C57 -3.628065902302E-01  3.547946047653E-01  3.917283705905E-01
C58  3.628065902302E-01 -3.547946047653E-01 -3.917283705905E-01
H59 -4.443061172144E-01 -3.572761585345E-01  4.677406768482E-01
H60  4.443061172144E-01  3.572761585345E-01 -4.677406768482E-01
H61  4.450763001642E-01 -1.590612838663E-01  3.355539944988E-01
H62 -4.450763001642E-01  1.590612838663E-01 -3.355539944988E-01
H63  3.991518499425E-01 -1.469088943838E-01  1.738831080507E-01
H64 -3.991518499425E-01  1.469088943838E-01 -1.738831080507E-01
H65  3.671229622285E-01 -1.278041142634E-01  1.538896368466E-02
H66 -3.671229622285E-01  1.278041142634E-01 -1.538896368466E-02
H67 -3.351933318307E-01  1.079633515443E-01  1.431569795240E-01
H68  3.351933318307E-01 -1.079633515443E-01 -1.431569795240E-01
H69 -2.937583717558E-01  9.164916699022E-02  3.034048916162E-01
H70  2.937583717558E-01 -9.164916699022E-02 -3.034048916162E-01
H71 -3.127852546204E-01  2.716658463686E-01  4.519393766765E-01
H72  3.127852546204E-01 -2.716658463686E-01 -4.519393766765E-01


#===END

data_OPT_STEP_10

_symmetry_space_group_name_H-M 'P 1'
_cell_length_a      7.57936597
_cell_length_b      6.33294193
_cell_length_c     16.02116548
_cell_angle_alpha  100.603484
_cell_angle_beta  112.503860
_cell_angle_gamma   87.125773

loop_
_atom_site_label
_atom_site_fract_x
_atom_site_fract_y
_atom_site_fract_z
C1  1.245645715724E-01  4.098173540241E-02  4.087554159376E-01
C2 -1.245645715724E-01 -4.098173540241E-02 -4.087554159376E-01
C3 -9.198488949795E-03 -2.641675375578E-01  2.846620335863E-01
C4  9.198488949795E-03  2.641675375578E-01 -2.846620335863E-01
C5  4.698119766173E-02 -1.739310173679E-01  3.761268237945E-01
C6 -4.698119766173E-02  1.739310173679E-01 -3.761268237945E-01
C7  1.452764167648E-01  1.594939471394E-01  3.490879479424E-01
C8 -1.452764167648E-01 -1.594939471394E-01 -3.490879479424E-01
C9  9.159775050894E-02  7.026563879717E-02  2.523458769308E-01
C10 -9.159775050894E-02 -7.026563879717E-02 -2.523458769308E-01
C11  1.115393245282E-01  1.860441508909E-01  1.901085212926E-01
C12 -1.115393245282E-01 -1.860441508909E-01 -1.901085212926E-01
C13  5.675767347189E-02  9.661635612711E-02  9.510462269741E-02
C14 -5.675767347189E-02 -9.661635612711E-02 -9.510462269741E-02
C15  7.950767406060E-02  2.110329895294E-01  3.188174975547E-02
C16 -7.950767406060E-02 -2.110329895294E-01 -3.188174975547E-02
C17 -2.494796654788E-02 -1.217687013947E-01  6.192400963464E-02
C18  2.494796654788E-02  1.217687013947E-01 -6.192400963464E-02
C19 -4.636660025804E-02 -2.367066704707E-01  1.261499825368E-01
C20  4.636660025804E-02  2.367066704707E-01 -1.261499825368E-01
C21  1.006898550571E-02 -1.468907471588E-01  2.192973092333E-01
C22 -1.006898550571E-02  1.468907471588E-01 -2.192973092333E-01
H23  1.676657081795E-01  1.100271203613E-01  4.828921511382E-01
H24 -1.676657081795E-01 -1.100271203613E-01 -4.828921511382E-01
H25 -7.058219381755E-02 -4.299076646593E-01  2.593173541410E-01
H26  7.058219381755E-02  4.299076646593E-01 -2.593173541410E-01
H27  3.161729104008E-02 -2.691554333719E-01  4.249208853138E-01
H28 -3.161729104008E-02  2.691554333719E-01 -4.249208853138E-01
H29  2.033970879197E-01  3.257702130116E-01  3.730894353752E-01
H30 -2.033970879197E-01 -3.257702130116E-01 -3.730894353752E-01
H31  1.728519729078E-01  3.509872231118E-01  2.146202381947E-01
H32 -1.728519729078E-01 -3.509872231118E-01 -2.146202381947E-01
H33  1.409965639562E-01  3.740370776670E-01  5.632721391046E-02
H34 -1.409965639562E-01 -3.740370776670E-01 -5.632721391046E-02
H35 -1.098582042781E-01 -4.012605333860E-01  1.011174086337E-01
H36  1.098582042781E-01  4.012605333860E-01 -1.011174086337E-01
C37 -4.395226684995E-01 -4.333696437912E-01  4.004442737067E-01
C38  4.395226684995E-01  4.333696437912E-01 -4.004442737067E-01
C39 -4.989959635759E-01 -3.226028424159E-01  3.283919953965E-01
C40  4.989959635759E-01  3.226028424159E-01 -3.283919953965E-01
C41 -4.851696214759E-01 -4.185243853712E-01  2.418025199427E-01
C42  4.851696214759E-01  4.185243853712E-01 -2.418025199427E-01
C43  4.593632573932E-01 -3.081225181226E-01  1.678683376636E-01
C44 -4.593632573932E-01  3.081225181226E-01 -1.678683376636E-01
C45  4.783815489669E-01 -4.012713999926E-01  8.352928062846E-02
C46 -4.783815489669E-01  4.012713999926E-01 -8.352928062846E-02
C47  4.271051685713E-01 -2.887253721272E-01  9.340135641757E-03
C48 -4.271051685713E-01  2.887253721271E-01 -9.340135641757E-03
C49 -4.478083240892E-01  3.811593150741E-01  7.372986940695E-02
C50  4.478083240892E-01 -3.811593150741E-01 -7.372986940695E-02
C51 -3.945424261649E-01  2.695054598432E-01  1.492156999067E-01
C52  3.945424261649E-01 -2.695054598432E-01 -1.492156999067E-01
C53 -4.110592552285E-01  3.636677156467E-01  2.320144224836E-01
C54  4.110592552285E-01 -3.636677156467E-01 -2.320144224836E-01
C55 -3.511431823206E-01  2.540334917352E-01  3.097686169193E-01
C56  3.511431823206E-01 -2.540334917352E-01 -3.097686169193E-01
C57 -3.638854364529E-01  3.528376668340E-01  3.911155883797E-01
C58  3.638854364529E-01 -3.528376668340E-01 -3.911155883797E-01
H59 -4.469001407111E-01 -3.575843489112E-01  4.674824113582E-01
H60  4.469001407111E-01  3.575843489112E-01 -4.674824113582E-01
H61  4.436683810904E-01 -1.578557398329E-01  3.358458209027E-01
H62 -4.436683810904E-01  1.578557398329E-01 -3.358458209027E-01
H63  4.007969034861E-01 -1.436080905732E-01  1.748522951150E-01
H64 -4.007969034861E-01  1.436080905732E-01 -1.748522951150E-01
H65  3.689614346059E-01 -1.242137370527E-01  1.645325216248E-02
H66 -3.689614346059E-01  1.242137370527E-01 -1.645325216248E-02
H67 -3.359685965914E-01  1.050732866143E-01  1.422188744592E-01
H68  3.359685965914E-01 -1.050732866143E-01 -1.422188744592E-01
H69 -2.936796153121E-01  8.897037008214E-02  3.025351406941E-01
H70  2.936796153121E-01 -8.897037008214E-02 -3.025351406941E-01
H71 -3.140126566028E-01  2.690173153857E-01  4.511437380409E-01
H72  3.140126566028E-01 -2.690173153857E-01 -4.511437380409E-01


#===END

data_OPT_STEP_11

_symmetry_space_group_name_H-M 'P 1'
_cell_length_a      7.54651906
_cell_length_b      6.36134524
_cell_length_c     16.02915727
_cell_angle_alpha  100.470770
_cell_angle_beta  112.450425
_cell_angle_gamma   87.658828

loop_
_atom_site_label
_atom_site_fract_x
_atom_site_fract_y
_atom_site_fract_z
C1  1.238679128749E-01  3.703100983006E-02  4.079956382963E-01
C2 -1.238679128749E-01 -3.703100983006E-02 -4.079956382963E-01
C3 -1.113686332083E-02 -2.680044799391E-01  2.837091728123E-01
C4  1.113686332083E-02  2.680044799391E-01 -2.837091728123E-01
C5  4.674421221964E-02 -1.791499514137E-01  3.752418547364E-01
C6 -4.674421221964E-02  1.791499514137E-01 -3.752418547364E-01
C7  1.450974736863E-01  1.560457002893E-01  3.486020784307E-01
C8 -1.450974736863E-01 -1.560457002893E-01 -3.486020784307E-01
C9  9.075037950505E-02  6.784221863480E-02  2.519353706723E-01
C10 -9.075037950505E-02 -6.784221863480E-02 -2.519353706723E-01
C11  1.135016169596E-01  1.833071489813E-01  1.901405886205E-01
C12 -1.135016169596E-01 -1.833071489813E-01 -1.901405886205E-01
C13  5.770408371808E-02  9.509328243791E-02  9.514671493665E-02
C14 -5.770408371808E-02 -9.509328243791E-02 -9.514671493665E-02
C15  7.898213088365E-02  2.125682201422E-01  3.220259243524E-02
C16 -7.898213088365E-02 -2.125682201422E-01 -3.220259243524E-02
C17 -2.388957489287E-02 -1.235074629414E-01  6.166745955723E-02
C18  2.388957489287E-02  1.235074629414E-01 -6.166745955723E-02
C19 -4.681783477633E-02 -2.392636473289E-01  1.255299568389E-01
C20  4.681783477633E-02  2.392636473289E-01 -1.255299568389E-01
C21  8.939727260321E-03 -1.497476658446E-01  2.186315895588E-01
C22 -8.939727260321E-03  1.497476658446E-01 -2.186315895588E-01
H23  1.642396657619E-01  1.080995432914E-01  4.818748347877E-01
H24 -1.642396657619E-01 -1.080995432914E-01 -4.818748347877E-01
H25 -7.468661019019E-02 -4.326439677190E-01  2.581185735944E-01
H26  7.468661019019E-02  4.326439677190E-01 -2.581185735944E-01
H27  3.099625163432E-02 -2.736704721834E-01  4.241553885427E-01
H28 -3.099625163432E-02  2.736704721834E-01 -4.241553885427E-01
H29  2.017669351638E-01  3.239430429021E-01  3.727689320749E-01
H30 -2.017669351638E-01 -3.239430429021E-01 -3.727689320749E-01
H31  1.761302520615E-01  3.481750758035E-01  2.150679429596E-01
H32 -1.761302520615E-01 -3.481750758035E-01 -2.150679429596E-01
H33  1.369813986169E-01  3.795080238368E-01  5.674431397753E-02
H34 -1.369813986169E-01 -3.795080238368E-01 -5.674431397753E-02
H35 -1.084368605868E-01 -4.054122204724E-01  1.005017540907E-01
H36  1.084368605868E-01  4.054122204724E-01 -1.005017540907E-01
C37 -4.406820477376E-01 -4.349858602861E-01  3.998634300428E-01
C38  4.406820477376E-01  4.349858602861E-01 -3.998634300428E-01
C39 -4.995524677393E-01 -3.255075072128E-01  3.278041053497E-01
C40  4.995524677393E-01  3.255075072128E-01 -3.278041053497E-01
C41 -4.859938917068E-01 -4.201459302167E-01  2.413615032834E-01
C42  4.859938917068E-01  4.201459302167E-01 -2.413615032834E-01
C43  4.592237824565E-01 -3.103112940818E-01  1.675597349481E-01
C44 -4.592237824565E-01  3.103112940818E-01 -1.675597349481E-01
C45  4.779124905078E-01 -4.023897221323E-01  8.329265525533E-02
C46 -4.779124905078E-01  4.023897221323E-01 -8.329265525533E-02
C47  4.256520756620E-01 -2.917274623290E-01  8.921917849073E-03
C48 -4.256520756620E-01  2.917274623290E-01 -8.921917849073E-03
C49 -4.458127845149E-01  3.833384487671E-01  7.410465881440E-02
C50  4.458127845149E-01 -3.833384487671E-01 -7.410465881440E-02
C51 -3.934113219413E-01  2.725587227997E-01  1.494593004614E-01
C52  3.934113219413E-01 -2.725587227997E-01 -1.494593004614E-01
C53 -4.104498154195E-01  3.651665982348E-01  2.320493259016E-01
C54  4.104498154195E-01 -3.651665982348E-01 -2.320493259016E-01
C55 -3.514431209080E-01  2.561025218480E-01  3.097123422135E-01
C56  3.514431209080E-01 -2.561025218480E-01 -3.097123422135E-01
C57 -3.655091485520E-01  3.526052224237E-01  3.907298601773E-01
C58  3.655091485520E-01 -3.526052224237E-01 -3.907298601773E-01
H59 -4.480794758226E-01 -3.585484573062E-01  4.671402673300E-01
H60  4.480794758226E-01  3.585484573062E-01 -4.671402673300E-01
H61  4.435724785947E-01 -1.621023262004E-01  3.351603670460E-01
H62 -4.435724785947E-01  1.621023262004E-01 -3.351603670460E-01
H63  4.027860818897E-01 -1.463245799899E-01  1.748978434880E-01
H64 -4.027860818897E-01  1.463245799899E-01 -1.748978434880E-01
H65  3.688261223296E-01 -1.278596507107E-01  1.623784206753E-02
H66 -3.688261223296E-01  1.278596507107E-01 -1.623784206753E-02
H67 -3.363614928602E-01  1.088350820320E-01  1.422945136978E-01
H68  3.363614928602E-01 -1.088350820320E-01 -1.422945136978E-01
H69 -2.909305836387E-01  9.458294576026E-02  3.032140457235E-01
H70  2.909305836387E-01 -9.458294576026E-02 -3.032140457235E-01
H71 -3.158806351810E-01  2.698396272414E-01  4.508347354618E-01
H72  3.158806351810E-01 -2.698396272414E-01 -4.508347354618E-01


#===END

data_OPT_STEP_12

_symmetry_space_group_name_H-M 'P 1'
_cell_length_a      7.57137328
_cell_length_b      6.34290779
_cell_length_c     16.04046476
_cell_angle_alpha  100.793737
_cell_angle_beta  112.560780
_cell_angle_gamma   86.955863

loop_
_atom_site_label
_atom_site_fract_x
_atom_site_fract_y
_atom_site_fract_z
C1  1.230631827971E-01  4.192932867325E-02  4.081390869983E-01
C2 -1.230631827971E-01 -4.192932867325E-02 -4.081390869983E-01
C3 -8.623336844562E-03 -2.658704280274E-01  2.840758788781E-01
C4  8.623336844562E-03  2.658704280274E-01 -2.840758788781E-01
C5  4.846848319310E-02 -1.757304989359E-01  3.755960862218E-01
C6 -4.846848319310E-02  1.757304989359E-01 -3.755960862218E-01
C7  1.438659527495E-01  1.600855072383E-01  3.486290154748E-01
C8 -1.438659527495E-01 -1.600855072383E-01 -3.486290154748E-01
C9  8.998072500703E-02  7.070586388457E-02  2.519835991365E-01
C10 -8.998072500703E-02 -7.070586388457E-02 -2.519835991365E-01
C11  1.137023435331E-01  1.845549426513E-01  1.902288161687E-01
C12 -1.137023435331E-01 -1.845549426513E-01 -1.902288161687E-01
C13  5.796372203676E-02  9.583775484362E-02  9.519609181707E-02
C14 -5.796372203676E-02 -9.583775484362E-02 -9.519609181707E-02
C15  8.002174068455E-02  2.113903517150E-01  3.229893484722E-02
C16 -8.002174068455E-02 -2.113903517150E-01 -3.229893484722E-02
C17 -2.416858497080E-02 -1.223037827383E-01  6.169593661594E-02
C18  2.416858497080E-02  1.223037827383E-01 -6.169593661594E-02
C19 -4.528922783159E-02 -2.381035820160E-01  1.257421365981E-01
C20  4.528922783159E-02  2.381035820160E-01 -1.257421365981E-01
C21  1.057023918104E-02 -1.481230985467E-01  2.188828017685E-01
C22 -1.057023918104E-02  1.481230985467E-01 -2.188828017685E-01
H23  1.620654666445E-01  1.146500890321E-01  4.819398437963E-01
H24 -1.620654666445E-01 -1.146500890321E-01 -4.819398437963E-01
H25 -7.094353120153E-02 -4.309929261719E-01  2.586231962778E-01
H26  7.094353120153E-02  4.309929261719E-01 -2.586231962778E-01
H27  3.323583552809E-02 -2.692262008355E-01  4.247026321626E-01
H28 -3.323583552809E-02  2.692262008355E-01 -4.247026321626E-01
H29  1.998136044758E-01  3.280305722366E-01  3.728866697763E-01
H30 -1.998136044758E-01 -3.280305722366E-01 -3.728866697763E-01
H31  1.756204681245E-01  3.496803461993E-01  2.151829655186E-01
H32 -1.756204681245E-01 -3.496803461993E-01 -2.151829655186E-01
H33  1.387896868485E-01  3.778946429919E-01  5.691445983141E-02
H34 -1.387896868485E-01 -3.778946429919E-01 -5.691445983141E-02
H35 -1.053129316459E-01 -4.049894608357E-01  1.008408875922E-01
H36  1.053129316459E-01  4.049894608357E-01 -1.008408875922E-01
C37 -4.422353820655E-01 -4.370057039037E-01  3.994552222586E-01
C38  4.422353820655E-01  4.370057039037E-01 -3.994552222586E-01
C39  4.988963872239E-01 -3.264189512804E-01  3.276713532084E-01
C40 -4.988963872239E-01  3.264189512804E-01 -3.276713532084E-01
C41 -4.882540032076E-01 -4.217322280395E-01  2.409417354374E-01
C42  4.882540032076E-01  4.217322280395E-01 -2.409417354374E-01
C43  4.572257525868E-01 -3.105530878578E-01  1.674932440662E-01
C44 -4.572257525868E-01  3.105530878578E-01 -1.674932440662E-01
C45  4.766607343396E-01 -4.025505164220E-01  8.323660686627E-02
C46 -4.766607343396E-01  4.025505164220E-01 -8.323660686627E-02
C47  4.248778965404E-01 -2.905077471211E-01  9.238344024045E-03
C48 -4.248778965404E-01  2.905077471211E-01 -9.238344024045E-03
C49 -4.461325816299E-01  3.819296796027E-01  7.372171290139E-02
C50  4.461325816299E-01 -3.819296796027E-01 -7.372171290139E-02
C51 -3.949749773351E-01  2.694246398324E-01  1.485494860653E-01
C52  3.949749773351E-01 -2.694246398324E-01 -1.485494860653E-01
C53 -4.123474489245E-01  3.621343490638E-01  2.312283584869E-01
C54  4.123474489245E-01 -3.621343490638E-01 -2.312283584869E-01
C55 -3.545988526146E-01  2.512704304172E-01  3.083807434147E-01
C56  3.545988526146E-01 -2.512704304172E-01 -3.083807434147E-01
C57 -3.679978841499E-01  3.482882084361E-01  3.896685244452E-01
C58  3.679978841499E-01 -3.482882084361E-01 -3.896685244452E-01
H59 -4.486818534150E-01 -3.596430737641E-01  4.670165104585E-01
H60  4.486818534150E-01  3.596430737641E-01 -4.670165104585E-01
H61  4.427925167721E-01 -1.613293705703E-01  3.355561029318E-01
H62 -4.427925167721E-01  1.613293705703E-01 -3.355561029318E-01
H63  4.010022367070E-01 -1.451952304046E-01  1.752683550126E-01
H64 -4.010022367070E-01  1.451952304046E-01 -1.752683550126E-01
H65  3.675801876530E-01 -1.255636843245E-01  1.684302126169E-02
H66 -3.675801876530E-01  1.255636843245E-01 -1.684302126169E-02
H67 -3.382692047154E-01  1.042077622972E-01  1.409279396514E-01
H68  3.382692047154E-01 -1.042077622972E-01 -1.409279396514E-01
H69 -2.941166461688E-01  8.849076986957E-02  3.014956339130E-01
H70  2.941166461688E-01 -8.849076986957E-02 -3.014956339130E-01
H71 -3.180390382039E-01  2.648738869923E-01  4.496277801081E-01
H72  3.180390382039E-01 -2.648738869923E-01 -4.496277801081E-01


#===END

data_OPT_STEP_13

_symmetry_space_group_name_H-M 'P 1'
_cell_length_a      7.53279227
_cell_length_b      6.34858304
_cell_length_c     16.05244827
_cell_angle_alpha  100.982903
_cell_angle_beta  112.542554
_cell_angle_gamma   86.614650

loop_
_atom_site_label
_atom_site_fract_x
_atom_site_fract_y
_atom_site_fract_z
C1  1.268755364190E-01  3.679125544603E-02  4.075486061424E-01
C2 -1.268755364190E-01 -3.679125544603E-02 -4.075486061424E-01
C3 -8.780197372886E-03 -2.681919818058E-01  2.831774674148E-01
C4  8.780197372886E-03  2.681919818058E-01 -2.831774674148E-01
C5  4.824890004955E-02 -1.780879701201E-01  3.746764959741E-01
C6 -4.824890004955E-02  1.780879701201E-01 -3.746764959741E-01
C7  1.448161287712E-01  1.572969757135E-01  3.481778132692E-01
C8 -1.448161287712E-01 -1.572969757135E-01 -3.481778132692E-01
C9  8.889758203779E-02  6.949208103507E-02  2.515576503999E-01
C10 -8.889758203779E-02 -6.949208103507E-02 -2.515576503999E-01
C11  1.119984521460E-01  1.848080418036E-01  1.901269025540E-01
C12 -1.119984521460E-01 -1.848080418036E-01 -1.901269025540E-01
C13  5.685098769572E-02  9.610208699276E-02  9.510976642317E-02
C14 -5.685098769572E-02 -9.610208699276E-02 -9.510976642317E-02
C15  8.074912501934E-02  2.108613294765E-01  3.277440436967E-02
C16 -8.074912501934E-02 -2.108613294765E-01 -3.277440436967E-02
C17 -2.596485502407E-02 -1.213451300773E-01  6.130378715667E-02
C18  2.596485502407E-02  1.213451300773E-01 -6.130378715667E-02
C19 -4.584595270199E-02 -2.387475265230E-01  1.250767182418E-01
C20  4.584595270199E-02  2.387475265230E-01 -1.250767182418E-01
C21  1.091735972253E-02 -1.501982540449E-01  2.182637614038E-01
C22 -1.091735972253E-02  1.501982540449E-01 -2.182637614038E-01
H23  1.722359159705E-01  1.049301396050E-01  4.816401925807E-01
H24 -1.722359159705E-01 -1.049301396050E-01 -4.816401925807E-01
H25 -7.095033854393E-02 -4.333210434872E-01  2.576095592542E-01
H26  7.095033854393E-02  4.333210434872E-01 -2.576095592542E-01
H27  3.173658981154E-02 -2.697467020794E-01  4.238012943012E-01
H28 -3.173658981154E-02  2.697467020794E-01 -4.238012943012E-01
H29  1.990345283459E-01  3.265787974793E-01  3.726875939481E-01
H30 -1.990345283459E-01 -3.265787974793E-01 -3.726875939481E-01
H31  1.715732264072E-01  3.518795074521E-01  2.153872986137E-01
H32 -1.715732264072E-01 -3.518795074521E-01 -2.153872986137E-01
H33  1.407775866664E-01  3.772280799494E-01  5.784633492772E-02
H34 -1.407775866664E-01 -3.772280799494E-01 -5.784633492772E-02
H35 -1.066062817824E-01 -4.050578674193E-01  9.982935805589E-02
H36  1.066062817824E-01  4.050578674193E-01 -9.982935805589E-02
C37 -4.420953756294E-01 -4.354849145931E-01  3.995330827465E-01
C38  4.420953756294E-01  4.354849145931E-01 -3.995330827465E-01
C39 -4.993116850748E-01 -3.239621684002E-01  3.281597444830E-01
C40  4.993116850748E-01  3.239621684002E-01 -3.281597444830E-01
C41 -4.866753694576E-01 -4.196808506634E-01  2.412488156259E-01
C42  4.866753694576E-01  4.196808506634E-01 -2.412488156259E-01
C43  4.604457475391E-01 -3.075063612306E-01  1.682804175533E-01
C44 -4.604457475391E-01  3.075063612306E-01 -1.682804175533E-01
C45  4.787218668447E-01 -4.007371505502E-01  8.372004689473E-02
C46 -4.787218668447E-01  4.007371505502E-01 -8.372004689473E-02
C47  4.284918833231E-01 -2.876777075529E-01  1.016378673538E-02
C48 -4.284918833231E-01  2.876777075529E-01 -1.016378673538E-02
C49 -4.478453475415E-01  3.807330417837E-01  7.321367247047E-02
C50  4.478453475415E-01 -3.807330417837E-01 -7.321367247047E-02
C51 -3.968275425374E-01  2.683039608292E-01  1.479244819219E-01
C52  3.968275425374E-01 -2.683039608292E-01 -1.479244819219E-01
C53 -4.124749289761E-01  3.625313960235E-01  2.309396713877E-01
C54  4.124749289761E-01 -3.625313960235E-01 -2.309396713877E-01
C55 -3.561238537959E-01  2.511095480876E-01  3.078206209236E-01
C56  3.561238537959E-01 -2.511095480876E-01 -3.078206209236E-01
C57 -3.678874637611E-01  3.493327831033E-01  3.894748597781E-01
C58  3.678874637611E-01 -3.493327831033E-01 -3.894748597781E-01
H59 -4.505755506166E-01 -3.590532946151E-01  4.666430904915E-01
H60  4.505755506166E-01  3.590532946151E-01 -4.666430904915E-01
H61  4.455453697709E-01 -1.579248266808E-01  3.364560967667E-01
H62 -4.455453697709E-01  1.579248266808E-01 -3.364560967667E-01
H63  4.055101519403E-01 -1.410759977780E-01  1.764975050964E-01
H64 -4.055101519403E-01  1.410759977780E-01 -1.764975050964E-01
H65  3.720236370593E-01 -1.217593698283E-01  1.811933174797E-02
H66 -3.720236370593E-01  1.217593698283E-01 -1.811933174797E-02
H67 -3.399539322302E-01  1.027564073336E-01  1.400897769015E-01
H68  3.399539322302E-01 -1.027564073336E-01 -1.400897769015E-01
H69 -2.975372518289E-01  8.680391931315E-02  3.003766900463E-01
H70  2.975372518289E-01 -8.680391931315E-02 -3.003766900463E-01
H71 -3.189347831023E-01  2.654721330339E-01  4.491552868167E-01
H72  3.189347831023E-01 -2.654721330339E-01 -4.491552868167E-01


#===END

data_OPT_STEP_14

_symmetry_space_group_name_H-M 'P 1'
_cell_length_a      7.54069582
_cell_length_b      6.34565783
_cell_length_c     16.05743607
_cell_angle_alpha  101.030530
_cell_angle_beta  112.578556
_cell_angle_gamma   86.466044

loop_
_atom_site_label
_atom_site_fract_x
_atom_site_fract_y
_atom_site_fract_z
C1  1.260170332342E-01  3.783991387263E-02  4.074428574372E-01
C2 -1.260170332342E-01 -3.783991387263E-02 -4.074428574372E-01
C3 -9.237015088218E-03 -2.674583719299E-01  2.830768554202E-01
C4  9.237015088218E-03  2.674583719299E-01 -2.830768554202E-01
C5  4.740754413960E-02 -1.770162032632E-01  3.745481942649E-01
C6 -4.740754413960E-02  1.770162032632E-01 -3.745481942649E-01
C7  1.446673350540E-01  1.576871606586E-01  3.480977708933E-01
C8 -1.446673350540E-01 -1.576871606586E-01 -3.480977708933E-01
C9  8.909526321380E-02  6.946183479140E-02  2.515202127486E-01
C10 -8.909526321380E-02 -6.946183479140E-02 -2.515202127486E-01
C11  1.120219488074E-01  1.848469173889E-01  1.901212211088E-01
C12 -1.120219488074E-01 -1.848469173889E-01 -1.901212211088E-01
C13  5.682555866634E-02  9.607626138439E-02  9.509699090302E-02
C14 -5.682555866634E-02 -9.607626138439E-02 -9.509699090302E-02
C15  7.995592964934E-02  2.111731920294E-01  3.274612638333E-02
C16 -7.995592964934E-02 -2.111731920294E-01 -3.274612638333E-02
C17 -2.531490586492E-02 -1.215985506280E-01  6.135813721661E-02
C18  2.531490586492E-02  1.215985506280E-01 -6.135813721661E-02
C19 -4.563796067922E-02 -2.385147674103E-01  1.250083568598E-01
C20  4.563796067922E-02  2.385147674103E-01 -1.250083568598E-01
C21  1.075534072419E-02 -1.498499693725E-01  2.181959333891E-01
C22 -1.075534072419E-02  1.498499693725E-01 -2.181959333891E-01
H23  1.709896321460E-01  1.063117853141E-01  4.815151924171E-01
H24 -1.709896321460E-01 -1.063117853141E-01 -4.815151924171E-01
H25 -7.112957832657E-02 -4.326880724022E-01  2.575393596633E-01
H26  7.112957832657E-02  4.326880724022E-01 -2.575393596633E-01
H27  3.087618725962E-02 -2.683716325124E-01  4.236959647961E-01
H28 -3.087618725962E-02  2.683716325124E-01 -4.236959647961E-01
H29  1.991955550282E-01  3.265984673780E-01  3.726494197260E-01
H30 -1.991955550282E-01 -3.265984673780E-01 -3.726494197260E-01
H31  1.723268505107E-01  3.513165491473E-01  2.154662855573E-01
H32 -1.723268505107E-01 -3.513165491473E-01 -2.154662855573E-01
H33  1.403315397270E-01  3.773797589960E-01  5.790488274693E-02
H34 -1.403315397270E-01 -3.773797589960E-01 -5.790488274693E-02
H35 -1.069164568665E-01 -4.043837893758E-01  9.966761791553E-02
H36  1.069164568665E-01  4.043837893758E-01 -9.966761791553E-02
C37 -4.419008872779E-01 -4.350053264343E-01  3.996096150555E-01
C38  4.419008872779E-01  4.350053264343E-01 -3.996096150555E-01
C39 -4.995066909829E-01 -3.235757386932E-01  3.281667934729E-01
C40  4.995066909829E-01  3.235757386932E-01 -3.281667934729E-01
C41 -4.865227719658E-01 -4.192458585008E-01  2.412805801820E-01
C42  4.865227719658E-01  4.192458585008E-01 -2.412805801820E-01
C43  4.599014112393E-01 -3.074609466637E-01  1.681949836507E-01
C44 -4.599014112393E-01  3.074609466637E-01 -1.681949836507E-01
C45  4.784857791735E-01 -4.006462895650E-01  8.369250225197E-02
C46 -4.784857791735E-01  4.006462895650E-01 -8.369250225197E-02
C47  4.279449668029E-01 -2.875847751462E-01  1.009264072383E-02
C48 -4.279449668029E-01  2.875847751462E-01 -1.009264072383E-02
C49 -4.477574064270E-01  3.806153686543E-01  7.320730391858E-02
C50  4.477574064270E-01 -3.806153686543E-01 -7.320730391858E-02
C51 -3.962761724082E-01  2.682089024813E-01  1.479824747274E-01
C52  3.962761724082E-01 -2.682089024813E-01 -1.479824747274E-01
C53 -4.122490435975E-01  3.626789831454E-01  2.309518794533E-01
C54  4.122490435975E-01 -3.626789831454E-01 -2.309518794533E-01
C55 -3.555425366325E-01  2.512797087721E-01  3.079096531906E-01
C56  3.555425366325E-01 -2.512797087721E-01 -3.079096531906E-01
C57 -3.674773575548E-01  3.497534842148E-01  3.895628760985E-01
C58  3.674773575548E-01 -3.497534842148E-01 -3.895628760985E-01
H59 -4.510703803451E-01 -3.589278954937E-01  4.664557453017E-01
H60  4.510703803451E-01  3.589278954937E-01 -4.664557453017E-01
H61  4.443021349777E-01 -1.577949408463E-01  3.363158131933E-01
H62 -4.443021349777E-01  1.577949408463E-01 -3.363158131933E-01
H63  4.035553621346E-01 -1.415244483833E-01  1.761653881172E-01
H64 -4.035553621346E-01  1.415244483833E-01 -1.761653881172E-01
H65  3.703535953517E-01 -1.220667875552E-01  1.785027726429E-02
H66 -3.703535953517E-01  1.220667875552E-01 -1.785027726429E-02
H67 -3.382971994967E-01  1.030620773600E-01  1.403121641703E-01
H68  3.382971994967E-01 -1.030620773600E-01 -1.403121641703E-01
H69 -2.968824895146E-01  8.674901754561E-02  3.004378406251E-01
H70  2.968824895146E-01 -8.674901754561E-02 -3.004378406251E-01
H71 -3.189646802081E-01  2.655262369364E-01  4.491337553232E-01
H72  3.189646802081E-01 -2.655262369364E-01 -4.491337553232E-01


#===END

data_OPT_STEP_15

_symmetry_space_group_name_H-M 'P 1'
_cell_length_a      7.55811941
_cell_length_b      6.34275238
_cell_length_c     16.06484584
_cell_angle_alpha  101.073322
_cell_angle_beta  112.610966
_cell_angle_gamma   86.469743

loop_
_atom_site_label
_atom_site_fract_x
_atom_site_fract_y
_atom_site_fract_z
C1  1.243857458633E-01  3.879249134060E-02  4.072884477233E-01
C2 -1.243857458633E-01 -3.879249134060E-02 -4.072884477233E-01
C3 -1.051003178333E-02 -2.671050640577E-01  2.826838232712E-01
C4  1.051003178333E-02  2.671050640577E-01 -2.826838232712E-01
C5  4.654454718576E-02 -1.770288241371E-01  3.741935961552E-01
C6 -4.654454718576E-02  1.770288241371E-01 -3.741935961552E-01
C7  1.444015669382E-01  1.578346952161E-01  3.480684721396E-01
C8 -1.444015669382E-01 -1.578346952161E-01 -3.480684721396E-01
C9  9.014335580684E-02  6.848237394057E-02  2.515312084478E-01
C10 -9.014335580684E-02 -6.848237394057E-02 -2.515312084478E-01
C11  1.116400294738E-01  1.852142466909E-01  1.901846881550E-01
C12 -1.116400294738E-01 -1.852142466909E-01 -1.901846881550E-01
C13  5.687835580877E-02  9.595106741925E-02  9.511113201010E-02
C14 -5.687835580877E-02 -9.595106741925E-02 -9.511113201010E-02
C15  8.000157708960E-02  2.111175521601E-01  3.285829130302E-02
C16 -8.000157708960E-02 -2.111175521601E-01 -3.285829130302E-02
C17 -2.481455681276E-02 -1.220199829436E-01  6.133014865739E-02
C18  2.481455681276E-02  1.220199829436E-01 -6.133014865739E-02
C19 -4.622816823463E-02 -2.382743770290E-01  1.246857338028E-01
C20  4.622816823463E-02  2.382743770290E-01 -1.246857338028E-01
C21  9.584887087868E-03 -1.494259854819E-01  2.179109899722E-01
C22 -9.584887087868E-03  1.494259854819E-01 -2.179109899722E-01
H23  1.675610726240E-01  1.085626650574E-01  4.813323318169E-01
H24 -1.675610726240E-01 -1.085626650574E-01 -4.813323318169E-01
H25 -7.321588899215E-02 -4.319654232045E-01  2.569605394069E-01
H26  7.321588899215E-02  4.319654232045E-01 -2.569605394069E-01
H27  3.083750662570E-02 -2.693594093624E-01  4.232472341864E-01
H28 -3.083750662570E-02  2.693594093624E-01 -4.232472341864E-01
H29  2.006742457501E-01  3.254210896645E-01  3.726958564261E-01
H30 -2.006742457501E-01 -3.254210896645E-01 -3.726958564261E-01
H31  1.733003358951E-01  3.508822047560E-01  2.157795143918E-01
H32 -1.733003358951E-01 -3.508822047560E-01 -2.157795143918E-01
H33  1.419941246401E-01  3.765400133990E-01  5.833458131427E-02
H34 -1.419941246401E-01 -3.765400133990E-01 -5.833458131427E-02
H35 -1.084310625020E-01 -4.036552965637E-01  9.908168463138E-02
H36  1.084310625020E-01  4.036552965637E-01 -9.908168463138E-02
C37 -4.421633586893E-01 -4.342560211916E-01  3.995969832351E-01
C38  4.421633586893E-01  4.342560211916E-01 -3.995969832351E-01
C39 -4.991839249514E-01 -3.226110659395E-01  3.282286514134E-01
C40  4.991839249514E-01  3.226110659395E-01 -3.282286514134E-01
C41 -4.853308992065E-01 -4.180287745964E-01  2.414812695005E-01
C42  4.853308992065E-01  4.180287745964E-01 -2.414812695005E-01
C43  4.622844292194E-01 -3.057833729016E-01  1.686076321510E-01
C44 -4.622844292194E-01  3.057833729016E-01 -1.686076321510E-01
C45  4.794797509760E-01 -3.999988433125E-01  8.385906149120E-02
C46 -4.794797509760E-01  3.999988433125E-01 -8.385906149120E-02
C47  4.294137651257E-01 -2.866490361002E-01  1.035514934956E-02
C48 -4.294137651257E-01  2.866490361002E-01 -1.035514934956E-02
C49 -4.482140474607E-01  3.804196234260E-01  7.312619084153E-02
C50  4.482140474607E-01 -3.804196234260E-01 -7.312619084153E-02
C51 -3.970337036139E-01  2.678027431236E-01  1.478358959878E-01
C52  3.970337036139E-01 -2.678027431236E-01 -1.478358959878E-01
C53 -4.127038093872E-01  3.629078682731E-01  2.308552730265E-01
C54  4.127038093872E-01 -3.629078682731E-01 -2.308552730265E-01
C55 -3.552154558288E-01  2.519591658410E-01  3.079959578677E-01
C56  3.552154558288E-01 -2.519591658410E-01 -3.079959578677E-01
C57 -3.684933407824E-01  3.502856368383E-01  3.894605447150E-01
C58  3.684933407824E-01 -3.502856368383E-01 -3.894605447150E-01
H59 -4.525475166004E-01 -3.586864600455E-01  4.659578348690E-01
H60  4.525475166004E-01  3.586864600455E-01 -4.659578348690E-01
H61  4.447656472687E-01 -1.566448013565E-01  3.364135093812E-01
H62 -4.447656472687E-01  1.566448013565E-01 -3.364135093812E-01
H63  4.078802137587E-01 -1.387507085340E-01  1.769085456182E-01
H64 -4.078802137587E-01  1.387507085340E-01 -1.769085456182E-01
H65  3.747854235978E-01 -1.195029333529E-01  1.863526249372E-02
H66 -3.747854235978E-01  1.195029333529E-01 -1.863526249372E-02
H67 -3.419493030334E-01  1.009398511300E-01  1.396207505418E-01
H68  3.419493030334E-01 -1.009398511300E-01 -1.396207505418E-01
H69 -2.980319242796E-01  8.648014175300E-02  3.002310593884E-01
H70  2.980319242796E-01 -8.648014175300E-02 -3.002310593884E-01
H71 -3.208443823107E-01  2.656362561085E-01  4.488432137635E-01
H72  3.208443823107E-01 -2.656362561085E-01 -4.488432137635E-01


#===END

data_OPT_STEP_16

_symmetry_space_group_name_H-M 'P 1'
_cell_length_a      7.57243214
_cell_length_b      6.33560625
_cell_length_c     16.07193280
_cell_angle_alpha  101.188380
_cell_angle_beta  112.652919
_cell_angle_gamma   86.281012

loop_
_atom_site_label
_atom_site_fract_x
_atom_site_fract_y
_atom_site_fract_z
C1  1.251065265656E-01  3.850579311951E-02  4.072713994170E-01
C2 -1.251065265656E-01 -3.850579311951E-02 -4.072713994170E-01
C3 -1.105413052332E-02 -2.664796902476E-01  2.824294174658E-01
C4  1.105413052332E-02  2.664796902476E-01 -2.824294174658E-01
C5  4.648818613366E-02 -1.767710008653E-01  3.739897516582E-01
C6 -4.648818613366E-02  1.767710008653E-01 -3.739897516582E-01
C7  1.449461601361E-01  1.576574396356E-01  3.481235245770E-01
C8 -1.449461601361E-01 -1.576574396356E-01 -3.481235245770E-01
C9  9.073321910031E-02  6.820729283285E-02  2.515582184955E-01
C10 -9.073321910031E-02 -6.820729283285E-02 -2.515582184955E-01
C11  1.118666452808E-01  1.852118555496E-01  1.902876100901E-01
C12 -1.118666452808E-01 -1.852118555496E-01 -1.902876100901E-01
C13  5.714979431201E-02  9.591862766510E-02  9.516571939131E-02
C14 -5.714979431201E-02 -9.591862766510E-02 -9.516571939131E-02
C15  8.097892249574E-02  2.103747207971E-01  3.303718359189E-02
C16 -8.097892249574E-02 -2.103747207971E-01 -3.303718359189E-02
C17 -2.528338993841E-02 -1.216899287121E-01  6.122704820494E-02
C18  2.528338993841E-02  1.216899287121E-01 -6.122704820494E-02
C19 -4.682430207078E-02 -2.376939120455E-01  1.244653131068E-01
C20  4.682430207078E-02  2.376939120455E-01 -1.244653131068E-01
C21  9.070509530936E-03 -1.489534719836E-01  2.177365419276E-01
C22 -9.070509530936E-03  1.489534719836E-01 -2.177365419276E-01
H23  1.686413949872E-01  1.080258365090E-01  4.813824350504E-01
H24 -1.686413949872E-01 -1.080258365090E-01 -4.813824350504E-01
H25 -7.428447350145E-02 -4.310152566781E-01  2.565595626082E-01
H26  7.428447350145E-02  4.310152566781E-01 -2.565595626082E-01
H27  3.100166599809E-02 -2.693301018788E-01  4.229641798007E-01
H28 -3.100166599809E-02  2.693301018788E-01 -4.229641798007E-01
H29  2.014973451015E-01  3.249043702377E-01  3.728067837831E-01
H30 -2.014973451015E-01 -3.249043702377E-01 -3.728067837831E-01
H31  1.737059578422E-01  3.507726561325E-01  2.160316927040E-01
H32 -1.737059578422E-01 -3.507726561325E-01 -2.160316927040E-01
H33  1.437021364843E-01  3.754038477870E-01  5.869350425945E-02
H34 -1.437021364843E-01 -3.754038477870E-01 -5.869350425945E-02
H35 -1.091425660419E-01 -4.030064509494E-01  9.872764159160E-02
H36  1.091425660419E-01  4.030064509494E-01 -9.872764159160E-02
C37 -4.432052451911E-01 -4.344183170913E-01  3.993456715400E-01
C38  4.432052451911E-01  4.344183170913E-01 -3.993456715400E-01
C39  4.992764784922E-01 -3.228467890241E-01  3.279475907691E-01
C40 -4.992764784922E-01  3.228467890241E-01 -3.279475907691E-01
C41 -4.861014360125E-01 -4.181334475887E-01  2.413121278716E-01
C42  4.861014360125E-01  4.181334475887E-01 -2.413121278716E-01
C43  4.604079364211E-01 -3.063802181491E-01  1.683022777035E-01
C44 -4.604079364211E-01  3.063802181491E-01 -1.683022777035E-01
C45  4.782764702765E-01 -4.003891508423E-01  8.366435579983E-02
C46 -4.782764702765E-01  4.003891508423E-01 -8.366435579983E-02
C47  4.265430751772E-01 -2.877633473601E-01  9.926583089657E-03
C48 -4.265430751772E-01  2.877633473601E-01 -9.926583089657E-03
C49 -4.464627923194E-01  3.811946320017E-01  7.337353020920E-02
C50  4.464627923194E-01 -3.811946320017E-01 -7.337353020920E-02
C51 -3.941009101113E-01  2.687932039753E-01  1.482018508061E-01
C52  3.941009101113E-01 -2.687932039753E-01 -1.482018508061E-01
C53 -4.114664143758E-01  3.634976278354E-01  2.309627342445E-01
C54  4.114664143758E-01 -3.634976278354E-01 -2.309627342445E-01
C55 -3.533855028745E-01  2.524622809749E-01  3.081064057970E-01
C56  3.533855028745E-01 -2.524622809749E-01 -3.081064057970E-01
C57 -3.687109036634E-01  3.501476698531E-01  3.892734057972E-01
C58  3.687109036634E-01 -3.501476698531E-01 -3.892734057972E-01
H59 -4.540111405488E-01 -3.586809001400E-01  4.655884902482E-01
H60  4.540111405488E-01  3.586809001400E-01 -4.655884902482E-01
H61  4.423718790512E-01 -1.568719203701E-01  3.360697050118E-01
H62 -4.423718790512E-01  1.568719203701E-01 -3.360697050118E-01
H63  4.046700548436E-01 -1.396109928023E-01  1.764406372786E-01
H64 -4.046700548436E-01  1.396109928023E-01 -1.764406372786E-01
H65  3.704374560403E-01 -1.210516062329E-01  1.801165688718E-02
H66 -3.704374560403E-01  1.210516062329E-01 -1.801165688718E-02
H67 -3.377214564436E-01  1.022580685893E-01  1.401319558318E-01
H68  3.377214564436E-01 -1.022580685893E-01 -1.401319558318E-01
H69 -2.950567062640E-01  8.722029181934E-02  3.004476939390E-01
H70  2.950567062640E-01 -8.722029181934E-02 -3.004476939390E-01
H71 -3.215082481712E-01  2.650493722793E-01  4.485083489542E-01
H72  3.215082481712E-01 -2.650493722793E-01 -4.485083489542E-01


#===END

data_OPT_STEP_17

_symmetry_space_group_name_H-M 'P 1'
_cell_length_a      7.59707418
_cell_length_b      6.32950681
_cell_length_c     16.08339380
_cell_angle_alpha  101.213425
_cell_angle_beta  112.735577
_cell_angle_gamma   86.214725

loop_
_atom_site_label
_atom_site_fract_x
_atom_site_fract_y
_atom_site_fract_z
C1  1.242372498927E-01  3.958990061151E-02  4.072703599209E-01
C2 -1.242372498927E-01 -3.958990061151E-02 -4.072703599208E-01
C3 -1.225924350726E-02 -2.656360987049E-01  2.821907785126E-01
C4  1.225924350726E-02  2.656360987049E-01 -2.821907785126E-01
C5  4.502836360604E-02 -1.756443397308E-01  3.737567108390E-01
C6 -4.502836360604E-02  1.756443397308E-01 -3.737567108390E-01
C7  1.448306380337E-01  1.583141531446E-01  3.482203604988E-01
C8 -1.448306380337E-01 -1.583141531446E-01 -3.482203604988E-01
C9  9.084071368131E-02  6.850899159892E-02  2.515940911147E-01
C10 -9.084071368131E-02 -6.850899159892E-02 -2.515940911147E-01
C11  1.143205466859E-01  1.838359202490E-01  1.905425941797E-01
C12 -1.143205466859E-01 -1.838359202490E-01 -1.905425941797E-01
C13  5.850183182650E-02  9.525264060704E-02  9.531334193748E-02
C14 -5.850183182650E-02 -9.525264060704E-02 -9.531334193748E-02
C15  8.189375055696E-02  2.100417269453E-01  3.314930848562E-02
C16 -8.189375055696E-02 -2.100417269453E-01 -3.314930848562E-02
C17 -2.547036213285E-02 -1.216648271509E-01  6.117328967986E-02
C18  2.547036213285E-02  1.216648271509E-01 -6.117328967986E-02
C19 -4.804495237131E-02 -2.368911923223E-01  1.242622593588E-01
C20  4.804495237131E-02  2.368911923223E-01 -1.242622593588E-01
C21  7.839055331343E-03 -1.479762813990E-01  2.175820671994E-01
C22 -7.839055331343E-03  1.479762813990E-01 -2.175820671994E-01
H23  1.667751941143E-01  1.099295393009E-01  4.813819089299E-01
H24 -1.667751941143E-01 -1.099295393009E-01 -4.813819089299E-01
H25 -7.479305085411E-02 -4.307983221388E-01  2.562652929140E-01
H26  7.479305085411E-02  4.307983221388E-01 -2.562652929140E-01
H27  3.033994105805E-02 -2.690097060783E-01  4.226816435972E-01
H28 -3.033994105805E-02  2.690097060783E-01 -4.226816435972E-01
H29  2.021075231080E-01  3.252293600939E-01  3.730328662446E-01
H30 -2.021075231080E-01 -3.252293600939E-01 -3.730328662446E-01
H31  1.790436776221E-01  3.475661576007E-01  2.165822023382E-01
H32 -1.790436776221E-01 -3.475661576007E-01 -2.165822023382E-01
H33  1.446065589971E-01  3.753874231938E-01  5.896354399852E-02
H34 -1.446065589971E-01 -3.753874231938E-01 -5.896354399852E-02
H35 -1.109330303990E-01 -4.019883103163E-01  9.837991325957E-02
H36  1.109330303990E-01  4.019883103163E-01 -9.837991325957E-02
C37 -4.444707614625E-01 -4.352047091503E-01  3.988644007194E-01
C38  4.444707614625E-01  4.352047091503E-01 -3.988644007194E-01
C39  4.995414764870E-01 -3.226028972280E-01  3.277595100821E-01
C40 -4.995414764870E-01  3.226028972280E-01 -3.277595100821E-01
C41 -4.861127041680E-01 -4.183144497699E-01  2.411289301622E-01
C42  4.861127041680E-01  4.183144497699E-01 -2.411289301622E-01
C43  4.597092933935E-01 -3.069214362977E-01  1.680078473327E-01
C44 -4.597092933935E-01  3.069214362977E-01 -1.680078473327E-01
C45  4.785268325411E-01 -4.003513222178E-01  8.364546010819E-02
C46 -4.785268325411E-01  4.003513222178E-01 -8.364546010819E-02
C47  4.263480124340E-01 -2.877315867331E-01  9.877571607504E-03
C48 -4.263480124340E-01  2.877315867331E-01 -9.877571607504E-03
C49 -4.467123093221E-01  3.808050275450E-01  7.329314689927E-02
C50  4.467123093221E-01 -3.808050275450E-01 -7.329314689927E-02
C51 -3.932528579198E-01  2.685603940272E-01  1.482498430149E-01
C52  3.932528579198E-01 -2.685603940272E-01 -1.482498430149E-01
C53 -4.120524451132E-01  3.627476456030E-01  2.307286478291E-01
C54  4.120524451132E-01 -3.627476456030E-01 -2.307286478291E-01
C55 -3.540926736494E-01  2.514503650073E-01  3.077942431965E-01
C56  3.540926736494E-01 -2.514503650073E-01 -3.077942431965E-01
C57 -3.703608530397E-01  3.489410947720E-01  3.887685116013E-01
C58  3.703608530397E-01 -3.489410947720E-01 -3.887685116013E-01
H59 -4.556758096409E-01 -3.592279569250E-01  4.649492074092E-01
H60  4.556758096409E-01  3.592279569250E-01 -4.649492074092E-01
H61  4.436462675144E-01 -1.558934085766E-01  3.360335336345E-01
H62 -4.436462675144E-01  1.558934085766E-01 -3.360335336345E-01
H63  4.022927926122E-01 -1.408599797715E-01  1.758073040087E-01
H64 -4.022927926122E-01  1.408599797715E-01 -1.758073040087E-01
H65  3.690985254682E-01 -1.216184648523E-01  1.774215712065E-02
H66 -3.690985254682E-01  1.216184648523E-01 -1.774215712065E-02
H67 -3.350566562261E-01  1.029498441644E-01  1.405407083992E-01
H68  3.350566562261E-01 -1.029498441644E-01 -1.405407083992E-01
H69 -2.954682931552E-01  8.617994951562E-02  3.002077345932E-01
H70  2.954682931552E-01 -8.617994951562E-02 -3.002077345932E-01
H71 -3.235874586674E-01  2.633585173359E-01  4.478497246303E-01
H72  3.235874586674E-01 -2.633585173359E-01 -4.478497246303E-01


#===END

data_OPT_STEP_18

_symmetry_space_group_name_H-M 'P 1'
_cell_length_a      7.61923020
_cell_length_b      6.31135940
_cell_length_c     16.09252892
_cell_angle_alpha  101.315996
_cell_angle_beta  112.738667
_cell_angle_gamma   86.083152

loop_
_atom_site_label
_atom_site_fract_x
_atom_site_fract_y
_atom_site_fract_z
C1  1.235879345460E-01  3.990547224935E-02  4.071158845507E-01
C2 -1.235879345460E-01 -3.990547224935E-02 -4.071158845507E-01
C3 -1.375617221140E-02 -2.655160687787E-01  2.817842216716E-01
C4  1.375617221140E-02  2.655160687787E-01 -2.817842216716E-01
C5  4.388106867960E-02 -1.755847136717E-01  3.733980368485E-01
C6 -4.388106867960E-02  1.755847136717E-01 -3.733980368485E-01
C7  1.453188766271E-01  1.581306269909E-01  3.482288601316E-01
C8 -1.453188766271E-01 -1.581306269909E-01 -3.482288601316E-01
C9  9.063542260306E-02  6.863515685541E-02  2.515385887608E-01
C10 -9.063542260306E-02 -6.863515685541E-02 -2.515385887608E-01
C11  1.148144637151E-01  1.838658595221E-01  1.906542359037E-01
C12 -1.148144637151E-01 -1.838658595221E-01 -1.906542359037E-01
C13  5.890892403715E-02  9.517343153388E-02  9.538118087494E-02
C14 -5.890892403715E-02 -9.517343153388E-02 -9.538118087494E-02
C15  8.221289170109E-02  2.104561869489E-01  3.330311022665E-02
C16 -8.221289170109E-02 -2.104561869489E-01 -3.330311022665E-02
C17 -2.538439122822E-02 -1.221249069329E-01  6.107215580626E-02
C18  2.538439122822E-02  1.221249069329E-01 -6.107215580626E-02
C19 -4.884422633068E-02 -2.370866202123E-01  1.239867620437E-01
C20  4.884422633068E-02  2.370866202123E-01 -1.239867620437E-01
C21  7.204367925616E-03 -1.481462850644E-01  2.173471928894E-01
C22 -7.204367925616E-03  1.481462850644E-01 -2.173471928894E-01
H23  1.657772748892E-01  1.107046370577E-01  4.812280452101E-01
H24 -1.657772748892E-01 -1.107046370577E-01 -4.812280452101E-01
H25 -7.713900511405E-02 -4.305317342035E-01  2.556833879840E-01
H26  7.713900511405E-02  4.305317342035E-01 -2.556833879840E-01
H27  2.919698486431E-02 -2.690781655849E-01  4.222677110981E-01
H28 -2.919698486431E-02  2.690781655849E-01 -4.222677110981E-01
H29  2.029620012932E-01  3.252208707168E-01  3.731963002556E-01
H30 -2.029620012932E-01 -3.252208707168E-01 -3.731963002556E-01
H31  1.795726471643E-01  3.480819529532E-01  2.168605044799E-01
H32 -1.795726471643E-01 -3.480819529532E-01 -2.168605044799E-01
H33  1.463752013953E-01  3.753211692099E-01  5.938447099695E-02
H34 -1.463752013953E-01 -3.753211692099E-01 -5.938447099695E-02
H35 -1.126831088878E-01 -4.019692881927E-01  9.791387306822E-02
H36  1.126831088878E-01  4.019692881927E-01 -9.791387306822E-02
C37 -4.453562204988E-01 -4.355385898819E-01  3.985107588377E-01
C38  4.453562204988E-01  4.355385898819E-01 -3.985107588377E-01
C39  4.983834427926E-01 -3.228316070496E-01  3.274439401960E-01
C40 -4.983834427926E-01  3.228316070496E-01 -3.274439401960E-01
C41 -4.857354319209E-01 -4.179388765606E-01  2.410989912007E-01
C42  4.857354319209E-01  4.179388765606E-01 -2.410989912007E-01
C43  4.596975227228E-01 -3.063817674002E-01  1.680126578895E-01
C44 -4.596975227228E-01  3.063817674002E-01 -1.680126578895E-01
C45  4.786517848828E-01 -3.999812694290E-01  8.367280399082E-02
C46 -4.786517848828E-01  3.999812694290E-01 -8.367280399082E-02
C47  4.260757014671E-01 -2.871822488184E-01  9.944000225769E-03
C48 -4.260757014670E-01  2.871822488184E-01 -9.944000225769E-03
C49 -4.464955289406E-01  3.804764762858E-01  7.322452042769E-02
C50  4.464955289406E-01 -3.804764762858E-01 -7.322452042769E-02
C51 -3.927167054191E-01  2.679734804721E-01  1.481328677100E-01
C52  3.927167054191E-01 -2.679734804721E-01 -1.481328677100E-01
C53 -4.111853118271E-01  3.626681563221E-01  2.306638951495E-01
C54  4.111853118271E-01 -3.626681563221E-01 -2.306638951495E-01
C55 -3.532797077908E-01  2.509435792343E-01  3.076105966743E-01
C56  3.532797077908E-01 -2.509435792343E-01 -3.076105966743E-01
C57 -3.701672597124E-01  3.484980193645E-01  3.884883780682E-01
C58  3.701672597124E-01 -3.484980193645E-01 -3.884883780682E-01
H59 -4.571725965206E-01 -3.592288228038E-01  4.645422157896E-01
H60  4.571725965206E-01  3.592288228038E-01 -4.645422157896E-01
H61  4.399473178358E-01 -1.568625586040E-01  3.353549871364E-01
H62 -4.399473178358E-01  1.568625586040E-01 -3.353549871364E-01
H63  4.010190867933E-01 -1.404128960283E-01  1.756769379327E-01
H64 -4.010190867933E-01  1.404128960283E-01 -1.756769379327E-01
H65  3.676763735150E-01 -1.211718011250E-01  1.769796875885E-02
H66 -3.676763735150E-01  1.211718011250E-01 -1.769796875885E-02
H67 -3.340506338860E-01  1.020839433596E-01  1.404200007951E-01
H68  3.340506338860E-01 -1.020839433596E-01 -1.404200007951E-01
H69 -2.934291469630E-01  8.581694774862E-02  3.001610828914E-01
H70  2.934291469630E-01 -8.581694774862E-02 -3.001610828914E-01
H71 -3.239057183688E-01  2.622788028000E-01  4.473772770589E-01
H72  3.239057183688E-01 -2.622788028000E-01 -4.473772770589E-01


#===END

data_OPT_STEP_19

_symmetry_space_group_name_H-M 'P 1'
_cell_length_a      7.67519037
_cell_length_b      6.30715427
_cell_length_c     16.11880560
_cell_angle_alpha  101.546396
_cell_angle_beta  112.801723
_cell_angle_gamma   85.763139

loop_
_atom_site_label
_atom_site_fract_x
_atom_site_fract_y
_atom_site_fract_z
C1  1.250542229216E-01  4.095920697310E-02  4.070496458829E-01
C2 -1.250542229216E-01 -4.095920697310E-02 -4.070496458829E-01
C3 -1.441444230205E-02 -2.640834133341E-01  2.812315699778E-01
C4  1.441444230205E-02  2.640834133341E-01 -2.812315699778E-01
C5  4.400151696887E-02 -1.741520394127E-01  3.729418057022E-01
C6 -4.400151696887E-02  1.741520394127E-01 -3.729418057022E-01
C7  1.481804399680E-01  1.578823510024E-01  3.484240123784E-01
C8 -1.481804399680E-01 -1.578823510024E-01 -3.484240123784E-01
C9  9.344219615312E-02  6.776218748800E-02  2.516264822089E-01
C10 -9.344219615312E-02 -6.776218748800E-02 -2.516264822089E-01
C11  1.177276712283E-01  1.828218998940E-01  1.909420819499E-01
C12 -1.177276712283E-01 -1.828218998940E-01 -1.909420819499E-01
C13  5.985508053856E-02  9.484530573662E-02  9.552575348700E-02
C14 -5.985508053856E-02 -9.484530573662E-02 -9.552575348700E-02
C15  8.235664543317E-02  2.108113766003E-01  3.354151023807E-02
C16 -8.235664543317E-02 -2.108113766003E-01 -3.354151023807E-02
C17 -2.491095808676E-02 -1.221846572580E-01  6.088552087007E-02
C18  2.491095808676E-02  1.221846572580E-01 -6.088552087007E-02
C19 -4.863045148966E-02 -2.370301439403E-01  1.236266333784E-01
C20  4.863045148966E-02  2.370301439403E-01 -1.236266333784E-01
C21  8.186638577735E-03 -1.480941283827E-01  2.170736643424E-01
C22 -8.186638577735E-03  1.480941283827E-01 -2.170736643424E-01
H23  1.691392917322E-01  1.110507050059E-01  4.812737973553E-01
H24 -1.691392917322E-01 -1.110507050059E-01 -4.812737973553E-01
H25 -7.916832742625E-02 -4.282291532021E-01  2.548820093128E-01
H26  7.916832742625E-02  4.282291532021E-01 -2.548820093128E-01
H27  2.778821289292E-02 -2.658983584617E-01  4.216812084508E-01
H28 -2.778821289292E-02  2.658983584617E-01 -4.216812084508E-01
H29  2.061120316639E-01  3.252935499100E-01  3.737522981099E-01
H30 -2.061120316639E-01 -3.252935499100E-01 -3.737522981099E-01
H31  1.856178518932E-01  3.451245742956E-01  2.175458178943E-01
H32 -1.856178518932E-01 -3.451245742956E-01 -2.175458178943E-01
H33  1.493510198444E-01  3.739844574728E-01  6.013511548396E-02
H34 -1.493510198444E-01 -3.739844574728E-01 -6.013511548396E-02
H35 -1.138750427515E-01 -4.010197157091E-01  9.723398149394E-02
H36  1.138750427515E-01  4.010197157091E-01 -9.723398149394E-02
C37 -4.475757529057E-01 -4.355700021744E-01  3.977180771056E-01
C38  4.475757529057E-01  4.355700021744E-01 -3.977180771056E-01
C39  4.959365498275E-01 -3.230787246752E-01  3.267623036516E-01
C40 -4.959365498275E-01  3.230787246752E-01 -3.267623036516E-01
C41 -4.884113938597E-01 -4.188349213860E-01  2.403788954756E-01
C42  4.884113938597E-01  4.188349213860E-01 -2.403788954756E-01
C43  4.560156926381E-01 -3.077679759745E-01  1.672600615715E-01
C44 -4.560156926381E-01  3.077679759745E-01 -1.672600615715E-01
C45  4.756942196223E-01 -4.013026536740E-01  8.307880335892E-02
C46 -4.756942196223E-01  4.013026536740E-01 -8.307880335892E-02
C47  4.233985017046E-01 -2.882004123708E-01  9.564906217482E-03
C48 -4.233985017046E-01  2.882004123708E-01 -9.564906217482E-03
C49 -4.458365034697E-01  3.806523985392E-01  7.320893823724E-02
C50  4.458365034697E-01 -3.806523985392E-01 -7.320893823724E-02
C51 -3.932737965947E-01  2.673416483439E-01  1.476704726559E-01
C52  3.932737965947E-01 -2.673416483439E-01 -1.476704726559E-01
C53 -4.123585149066E-01  3.620848318347E-01  2.300675540093E-01
C54  4.123585149066E-01 -3.620848318347E-01 -2.300675540093E-01
C55 -3.551566631001E-01  2.501199345909E-01  3.067286559995E-01
C56  3.551566631001E-01 -2.501199345909E-01 -3.067286559995E-01
C57 -3.716464350051E-01  3.483115002735E-01  3.876384500245E-01
C58  3.716464350051E-01 -3.483115002735E-01 -3.876384500245E-01
H59 -4.616434031227E-01 -3.597453373644E-01  4.634158002731E-01
H60  4.616434031227E-01  3.597453373644E-01 -4.634158002731E-01
H61  4.365768431640E-01 -1.572985695719E-01  3.345772465707E-01
H62 -4.365768431640E-01  1.572985695719E-01 -3.345772465707E-01
H63  3.949648694508E-01 -1.427250539733E-01  1.746099693067E-01
H64 -3.949648694508E-01  1.427250539733E-01 -1.746099693067E-01
H65  3.629679260250E-01 -1.229836355421E-01  1.705071620945E-02
H66 -3.629679260250E-01  1.229836355421E-01 -1.705071620945E-02
H67 -3.333891390548E-01  1.018230829265E-01  1.401186688061E-01
H68  3.333891390548E-01 -1.018230829265E-01 -1.401186688061E-01
H69 -2.957628661297E-01  8.428727951427E-02  2.991003490917E-01
H70  2.957628661297E-01 -8.428727951427E-02 -2.991003490917E-01
H71 -3.276169414925E-01  2.605224614130E-01  4.459111519480E-01
H72  3.276169414925E-01 -2.605224614130E-01 -4.459111519480E-01


#===END

data_OPT_STEP_20

_symmetry_space_group_name_H-M 'P 1'
_cell_length_a      7.69431019
_cell_length_b      6.26718839
_cell_length_c     16.13279432
_cell_angle_alpha  101.707080
_cell_angle_beta  112.834258
_cell_angle_gamma   85.406718

loop_
_atom_site_label
_atom_site_fract_x
_atom_site_fract_y
_atom_site_fract_z
C1  1.224696948126E-01  4.376040451319E-02  4.066596804834E-01
C2 -1.224696948126E-01 -4.376040451319E-02 -4.066596804834E-01
C3 -1.863282493182E-02 -2.622763512945E-01  2.806108147336E-01
C4  1.863282493182E-02  2.622763512945E-01 -2.806108147336E-01
C5  4.034899171130E-02 -1.719561314433E-01  3.723674242615E-01
C6 -4.034899171130E-02  1.719561314433E-01 -3.723674242615E-01
C7  1.465656141126E-01  1.604552290577E-01  3.481934860579E-01
C8 -1.465656141126E-01 -1.604552290577E-01 -3.481934860579E-01
C9  9.063176833303E-02  7.041538335565E-02  2.513118533464E-01
C10 -9.063176833303E-02 -7.041538335565E-02 -2.513118533464E-01
C11  1.164561013140E-01  1.849535625096E-01  1.908730965411E-01
C12 -1.164561013140E-01 -1.849535625096E-01 -1.908730965411E-01
C13  5.891348450331E-02  9.618778485851E-02  9.542383970799E-02
C14 -5.891348450331E-02 -9.618778485851E-02 -9.542383970799E-02
C15  8.417187981692E-02  2.108581074244E-01  3.381663414274E-02
C16 -8.417187981692E-02 -2.108581074244E-01 -3.381663414274E-02
C17 -2.757102800524E-02 -1.209681503536E-01  6.058554360592E-02
C18  2.757102800524E-02  1.209681503536E-01 -6.058554360592E-02
C19 -5.302894859163E-02 -2.352228874171E-01  1.230771741121E-01
C20  5.302894859163E-02  2.352228874171E-01 -1.230771741121E-01
C21  4.198692218458E-03 -1.459088299524E-01  2.165582281704E-01
C22 -4.198692218458E-03  1.459088299524E-01 -2.165582281704E-01
H23  1.669998605677E-01  1.143049059474E-01  4.809018985962E-01
H24 -1.669998605677E-01 -1.143049059474E-01 -4.809018985962E-01
H25 -8.346674906265E-02 -4.272227342545E-01  2.541905046956E-01
H26  8.346674906265E-02  4.272227342545E-01 -2.541905046956E-01
H27  2.321852139129E-02 -2.629454558151E-01  4.210778941536E-01
H28 -2.321852139129E-02  2.629454558151E-01 -4.210778941536E-01
H29  2.063922296888E-01  3.276610414422E-01  3.738461654983E-01
H30 -2.063922296888E-01 -3.276610414422E-01 -3.738461654983E-01
H31  1.857691062382E-01  3.472122491429E-01  2.177132332144E-01
H32 -1.857691062382E-01 -3.472122491429E-01 -2.177132332144E-01
H33  1.514693968966E-01  3.747667361132E-01  6.059690755393E-02
H34 -1.514693968966E-01 -3.747667361132E-01 -6.059690755393E-02
H35 -1.189091489165E-01 -3.996674222086E-01  9.653270315875E-02
H36  1.189091489165E-01  3.996674222086E-01 -9.653270315875E-02
C37 -4.472309692793E-01 -4.350716063898E-01  3.975837298152E-01
C38  4.472309692793E-01  4.350716063898E-01 -3.975837298152E-01
C39  4.964257621149E-01 -3.214715307659E-01  3.268235841284E-01
C40 -4.964257621149E-01  3.214715307659E-01 -3.268235841284E-01
C41 -4.873379160087E-01 -4.177331606581E-01  2.404881601355E-01
C42  4.873379160087E-01  4.177331606581E-01 -2.404881601355E-01
C43  4.567746173368E-01 -3.056579655322E-01  1.674935221188E-01
C44 -4.567746173368E-01  3.056579655322E-01 -1.674935221188E-01
C45  4.761943502011E-01 -4.001571209103E-01  8.320319867351E-02
C46 -4.761943502011E-01  4.001571209103E-01 -8.320319867351E-02
C47  4.226036497687E-01 -2.866347953092E-01  9.630393944524E-03
C48 -4.226036497687E-01  2.866347953092E-01 -9.630393944524E-03
C49 -4.440681336795E-01  3.803882701432E-01  7.335476934401E-02
C50  4.440681336795E-01 -3.803882701432E-01 -7.335476934401E-02
C51 -3.907117103736E-01  2.664525942838E-01  1.477926869722E-01
C52  3.907117103736E-01 -2.664525942838E-01 -1.477926869722E-01
C53 -4.099334642460E-01  3.618750438004E-01  2.301831484862E-01
C54  4.099334642460E-01 -3.618750438004E-01 -2.301831484862E-01
C55 -3.531010105267E-01  2.487278749592E-01  3.066162811194E-01
C56  3.531010105267E-01 -2.487278749592E-01 -3.066162811194E-01
C57 -3.705068157933E-01  3.471970237377E-01  3.873980953332E-01
C58  3.705068157933E-01 -3.471970237377E-01 -3.873980953332E-01
H59 -4.629814860596E-01 -3.595352427762E-01  4.630047571909E-01
H60  4.629814860596E-01  3.595352427762E-01 -4.630047571909E-01
H61  4.367559101587E-01 -1.543806259590E-01  3.347462656886E-01
H62 -4.367559101587E-01  1.543806259590E-01 -3.347462656886E-01
H63  3.954746764476E-01 -1.392588311651E-01  1.749706396236E-01
H64 -3.954746764476E-01  1.392588311651E-01 -1.749706396236E-01
H65  3.617341693155E-01 -1.200954215739E-01  1.719416336273E-02
H66 -3.617341693155E-01  1.200954215739E-01 -1.719416336273E-02
H67 -3.292333987466E-01  1.003313825581E-01  1.403783940218E-01
H68  3.292333987466E-01 -1.003313825581E-01 -1.403783940218E-01
H69 -2.921129483733E-01  8.226040882329E-02  2.991327477667E-01
H70  2.921129483733E-01 -8.226040882329E-02 -2.991327477667E-01
H71 -3.273075340604E-01  2.580134632991E-01  4.453331180289E-01
H72  3.273075340604E-01 -2.580134632991E-01 -4.453331180289E-01


#===END

data_OPT_STEP_21

_symmetry_space_group_name_H-M 'P 1'
_cell_length_a      7.75949771
_cell_length_b      6.25241781
_cell_length_c     16.14035645
_cell_angle_alpha  101.853028
_cell_angle_beta  112.902196
_cell_angle_gamma   85.485783

loop_
_atom_site_label
_atom_site_fract_x
_atom_site_fract_y
_atom_site_fract_z
C1  1.265157506809E-01  4.077658358238E-02  4.067816217733E-01
C2 -1.265157506809E-01 -4.077658358238E-02 -4.067816217733E-01
C3 -1.908026825806E-02 -2.636102911604E-01  2.799914578960E-01
C4  1.908026825806E-02  2.636102911604E-01 -2.799914578960E-01
C5  4.054709365502E-02 -1.734150976736E-01  3.719600359798E-01
C6 -4.054709365502E-02  1.734150976736E-01 -3.719600359798E-01
C7  1.490473781678E-01  1.591469732400E-01  3.485034689211E-01
C8 -1.490473781678E-01 -1.591469732400E-01 -3.485034689211E-01
C9  9.065568446713E-02  7.039519176013E-02  2.513669676055E-01
C10 -9.065568446713E-02 -7.039519176013E-02 -2.513669676055E-01
C11  1.179201457922E-01  1.846077275116E-01  1.912826367797E-01
C12 -1.179201457922E-01 -1.846077275116E-01 -1.912826367797E-01
C13  6.083302696090E-02  9.504961431988E-02  9.566766813963E-02
C14 -6.083302696090E-02 -9.504961431988E-02 -9.566766813963E-02
C15  8.759479074784E-02  2.094023587799E-01  3.450607079619E-02
C16 -8.759479074784E-02 -2.094023587799E-01 -3.450607079619E-02
C17 -2.854751161637E-02 -1.208774894127E-01  6.018771098753E-02
C18  2.854751161637E-02  1.208774894127E-01 -6.018771098753E-02
C19 -5.357915306946E-02 -2.361518368515E-01  1.225345415329E-01
C20  5.357915306946E-02  2.361518368515E-01 -1.225345415329E-01
C21  4.638468946520E-03 -1.470163530460E-01  2.162267542972E-01
C22 -4.638468946520E-03  1.470163530460E-01 -2.162267542972E-01
H23  1.698046565825E-01  1.126936604470E-01  4.810792373273E-01
H24 -1.698046565825E-01 -1.126936604470E-01 -4.810792373273E-01
H25 -8.698368725827E-02 -4.271433930003E-01  2.530774486691E-01
H26  8.698368725827E-02  4.271433930003E-01 -2.530774486691E-01
H27  2.259681174288E-02 -2.645593779090E-01  4.203961330085E-01
H28 -2.259681174288E-02  2.645593779090E-01 -4.203961330085E-01
H29  2.112079021743E-01  3.257375102328E-01  3.743560475773E-01
H30 -2.112079021743E-01 -3.257375102328E-01 -3.743560475773E-01
H31  1.852272651296E-01  3.491362560887E-01  2.183246702141E-01
H32 -1.852272651296E-01 -3.491362560887E-01 -2.183246702141E-01
H33  1.542007036387E-01  3.743250993060E-01  6.149710789323E-02
H34 -1.542007036387E-01 -3.743250993060E-01 -6.149710789323E-02
H35 -1.208281793383E-01 -4.003475230189E-01  9.560254674072E-02
H36  1.208281793383E-01  4.003475230189E-01 -9.560254674072E-02
C37 -4.502786331930E-01 -4.346981487486E-01  3.971278454497E-01
C38  4.502786331930E-01  4.346981487486E-01 -3.971278454497E-01
C39  4.939716319462E-01 -3.213195003069E-01  3.263614822016E-01
C40 -4.939716319462E-01  3.213195003069E-01 -3.263614822016E-01
C41 -4.867461683159E-01 -4.163947843636E-01  2.406148833950E-01
C42  4.867461683159E-01  4.163947843636E-01 -2.406148833950E-01
C43  4.575539813200E-01 -3.044815072801E-01  1.676083500175E-01
C44 -4.575539813200E-01  3.044815072801E-01 -1.676083500175E-01
C45  4.785398012714E-01 -3.984373787432E-01  8.363050977010E-02
C46 -4.785398012714E-01  3.984373787432E-01 -8.363050977010E-02
C47  4.237586611414E-01 -2.857217439670E-01  9.818533127136E-03
C48 -4.237586611414E-01  2.857217439670E-01 -9.818533127136E-03
C49 -4.446854283093E-01  3.801975300495E-01  7.325443994416E-02
C50  4.446854283093E-01 -3.801975300495E-01 -7.325443994416E-02
C51 -3.889239393383E-01  2.678668583293E-01  1.482497968061E-01
C52  3.889239393383E-01 -2.678668583293E-01 -1.482497968061E-01
C53 -4.081778424638E-01  3.637138816621E-01  2.306569183525E-01
C54  4.081778424638E-01 -3.637138816621E-01 -2.306569183525E-01
C55 -3.527826346924E-01  2.502873891973E-01  3.069447386361E-01
C56  3.527826346924E-01 -2.502873891973E-01 -3.069447386361E-01
C57 -3.740316234466E-01  3.471746492685E-01  3.871150040335E-01
C58  3.740316234466E-01 -3.471746492685E-01 -3.871150040335E-01
H59 -4.669900519642E-01 -3.594490361279E-01  4.621794143696E-01
H60  4.669900519642E-01  3.594490361279E-01 -4.621794143696E-01
H61  4.340390408852E-01 -1.544101403156E-01  3.341332972411E-01
H62 -4.340390408852E-01  1.544101403156E-01 -3.341332972411E-01
H63  3.976669271894E-01 -1.373607101898E-01  1.753073067950E-01
H64 -3.976669271894E-01  1.373607101898E-01 -1.753073067950E-01
H65  3.619136405180E-01 -1.196175674613E-01  1.714734243236E-02
H66 -3.619136405180E-01  1.196175674613E-01 -1.714734243236E-02
H67 -3.296404352321E-01  1.003830676663E-01  1.405097889442E-01
H68  3.296404352321E-01 -1.003830676663E-01 -1.405097889442E-01
H69 -2.940022488087E-01  8.252952435275E-02  2.992434066434E-01
H70  2.940022488087E-01 -8.252952435275E-02 -2.992434066434E-01
H71 -3.312121470796E-01  2.583863635231E-01  4.450649945105E-01
H72  3.312121470796E-01 -2.583863635231E-01 -4.450649945105E-01


#===END

data_OPT_STEP_22

_symmetry_space_group_name_H-M 'P 1'
_cell_length_a      7.80845982
_cell_length_b      6.20912726
_cell_length_c     16.14161365
_cell_angle_alpha  101.962024
_cell_angle_beta  112.964133
_cell_angle_gamma   85.628266

loop_
_atom_site_label
_atom_site_fract_x
_atom_site_fract_y
_atom_site_fract_z
C1  1.254223325236E-01  4.007210981861E-02  4.067432628985E-01
C2 -1.254223325236E-01 -4.007210981861E-02 -4.067432628985E-01
C3 -2.030823471393E-02 -2.659843352351E-01  2.794454502607E-01
C4  2.030823471393E-02  2.659843352351E-01 -2.794454502607E-01
C5  3.916684680910E-02 -1.754823334834E-01  3.715694686643E-01
C6 -3.916684680910E-02  1.754823334834E-01 -3.715694686643E-01
C7  1.486459980455E-01  1.591720563289E-01  3.487013097721E-01
C8 -1.486459980455E-01 -1.591720563289E-01 -3.487013097721E-01
C9  9.077689987976E-02  6.986652698335E-02  2.514618276607E-01
C10 -9.077689987976E-02 -6.986652698335E-02 -2.514618276607E-01
C11  1.186139847898E-01  1.846127159508E-01  1.915844691707E-01
C12 -1.186139847898E-01 -1.846127159508E-01 -1.915844691707E-01
C13  6.049676914557E-02  9.551013124261E-02  9.582671440535E-02
C14 -6.049676914557E-02 -9.551013124261E-02 -9.582671440535E-02
C15  8.657974348289E-02  2.114233204717E-01  3.483142817174E-02
C16 -8.657974348289E-02 -2.114233204717E-01 -3.483142817174E-02
C17 -2.803080850553E-02 -1.223005707843E-01  6.005598684523E-02
C18  2.803080850553E-02  1.223005707843E-01 -6.005598684523E-02
C19 -5.377342937123E-02 -2.382835860819E-01  1.220939211350E-01
C20  5.377342937123E-02  2.382835860819E-01 -1.220939211350E-01
C21  3.946494351248E-03 -1.485560316918E-01  2.159278274735E-01
C22 -3.946494351248E-03  1.485560316918E-01 -2.159278274735E-01
H23  1.718703213333E-01  1.099699406105E-01  4.813434868760E-01
H24 -1.718703213333E-01 -1.099699406105E-01 -4.813434868760E-01
H25 -8.734423694646E-02 -4.313304237990E-01  2.522904459302E-01
H26  8.734423694646E-02  4.313304237990E-01 -2.522904459302E-01
H27  2.231694695570E-02 -2.689000881480E-01  4.197986332901E-01
H28 -2.231694695570E-02  2.689000881480E-01 -4.197986332901E-01
H29  2.115611246272E-01  3.265176047264E-01  3.748062052489E-01
H30 -2.115611246272E-01 -3.265176047264E-01 -3.748062052489E-01
H31  1.852492203724E-01  3.507666970371E-01  2.188032567852E-01
H32 -1.852492203724E-01 -3.507666970371E-01 -2.188032567852E-01
H33  1.542387168765E-01  3.766972809611E-01  6.209301636351E-02
H34 -1.542387168765E-01 -3.766972809611E-01 -6.209301636351E-02
H35 -1.201319381351E-01 -4.043249862780E-01  9.493610315825E-02
H36  1.201319381351E-01  4.043249862780E-01 -9.493610315825E-02
C37 -4.525369866100E-01 -4.360428583836E-01  3.966809997639E-01
C38  4.525369866100E-01  4.360428583836E-01 -3.966809997639E-01
C39  4.940988683846E-01 -3.206816834072E-01  3.263903749417E-01
C40 -4.940988683846E-01  3.206816834072E-01 -3.263903749417E-01
C41 -4.872153443910E-01 -4.165125832837E-01  2.405401452789E-01
C42  4.872153443910E-01  4.165125832837E-01 -2.405401452789E-01
C43  4.581485014371E-01 -3.033941499556E-01  1.677740632125E-01
C44 -4.581485014371E-01  3.033941499556E-01 -1.677740632125E-01
C45  4.779335539380E-01 -3.984345805780E-01  8.354613870125E-02
C46 -4.779335539380E-01  3.984345805780E-01 -8.354613870125E-02
C47  4.240882752171E-01 -2.846147004708E-01  9.946479235237E-03
C48 -4.240882752171E-01  2.846147004708E-01 -9.946479235237E-03
C49 -4.443861985847E-01  3.797797438982E-01  7.326495012208E-02
C50  4.443861985847E-01 -3.797797438982E-01 -7.326495012208E-02
C51 -3.893583783661E-01  2.663857650345E-01  1.480815935977E-01
C52  3.893583783661E-01 -2.663857650345E-01 -1.480815935977E-01
C53 -4.100611513795E-01  3.618080779586E-01  2.302973125471E-01
C54  4.100611513795E-01 -3.618080779586E-01 -2.302973125471E-01
C55 -3.532524196273E-01  2.484241121187E-01  3.068258050697E-01
C56  3.532524196273E-01 -2.484241121187E-01 -3.068258050697E-01
C57 -3.748789328083E-01  3.457494254176E-01  3.869259971085E-01
C58  3.748789328083E-01 -3.457494254176E-01 -3.869259971085E-01
H59 -4.676174175488E-01 -3.594802170883E-01  4.620447994422E-01
H60  4.676174175488E-01  3.594802170883E-01 -4.620447994422E-01
H61  4.352834659443E-01 -1.523948030748E-01  3.344357219691E-01
H62 -4.352834659443E-01  1.523948030748E-01 -3.344357219691E-01
H63  3.988629454623E-01 -1.351495535446E-01  1.756205668856E-01
H64 -3.988629454623E-01  1.351495535446E-01 -1.756205668856E-01
H65  3.657175664189E-01 -1.157788452241E-01  1.797513111869E-02
H66 -3.657175664189E-01  1.157788452241E-01 -1.797513111869E-02
H67 -3.293878225115E-01  9.855120070708E-02  1.403980704624E-01
H68  3.293878225115E-01 -9.855120070708E-02 -1.403980704624E-01
H69 -2.901610739067E-01  8.259476183693E-02  2.998897571646E-01
H70  2.901610739067E-01 -8.259476183693E-02 -2.998897571646E-01
H71 -3.309319167611E-01  2.575458262292E-01  4.451506389537E-01
H72  3.309319167611E-01 -2.575458262292E-01 -4.451506389537E-01


#===END

data_OPT_STEP_23

_symmetry_space_group_name_H-M 'P 1'
_cell_length_a      7.84766220
_cell_length_b      6.16537980
_cell_length_c     16.14549523
_cell_angle_alpha  102.026155
_cell_angle_beta  112.911246
_cell_angle_gamma   85.758741

loop_
_atom_site_label
_atom_site_fract_x
_atom_site_fract_y
_atom_site_fract_z
C1  1.253467921932E-01  3.856398563162E-02  4.066467980318E-01
C2 -1.253467921932E-01 -3.856398563162E-02 -4.066467980318E-01
C3 -2.098998099818E-02 -2.688805066009E-01  2.789657476193E-01
C4  2.098998099818E-02  2.688805066009E-01 -2.789657476193E-01
C5  3.955512555920E-02 -1.789138088364E-01  3.711936055279E-01
C6 -3.955512555920E-02  1.789138088364E-01 -3.711936055279E-01
C7  1.500860363321E-01  1.579026929395E-01  3.488582909881E-01
C8 -1.500860363321E-01 -1.579026929395E-01 -3.488582909881E-01
C9  9.159839479983E-02  6.891506546898E-02  2.515059002763E-01
C10 -9.159839479983E-02 -6.891506546898E-02 -2.515059002763E-01
C11  1.182920172910E-01  1.856209172306E-01  1.917154862704E-01
C12 -1.182920172910E-01 -1.856209172306E-01 -1.917154862704E-01
C13  6.015660332243E-02  9.631921014804E-02  9.588652703843E-02
C14 -6.015660332243E-02 -9.631921014804E-02 -9.588652703843E-02
C15  8.755614305045E-02  2.124294513547E-01  3.510048201272E-02
C16 -8.755614305045E-02 -2.124294513547E-01 -3.510048201272E-02
C17 -2.992104212018E-02 -1.222718238527E-01  5.980355035307E-02
C18  2.992104212018E-02  1.222718238527E-01 -5.980355035307E-02
C19 -5.690699419471E-02 -2.384690997420E-01  1.215927051115E-01
C20  5.690699419471E-02  2.384690997420E-01 -1.215927051115E-01
C21  2.090859407101E-03 -1.494092287836E-01  2.155192426738E-01
C22 -2.090859407101E-03  1.494092287836E-01 -2.155192426738E-01
H23  1.712730422906E-01  1.090157685793E-01  4.812931882835E-01
H24 -1.712730422906E-01 -1.090157685793E-01 -4.812931882835E-01
H25 -8.766951500071E-02 -4.357073096034E-01  2.516085735719E-01
H26  8.766951500071E-02  4.357073096034E-01 -2.516085735719E-01
H27  2.202894643930E-02 -2.728918589476E-01  4.192369011053E-01
H28 -2.202894643930E-02  2.728918589476E-01 -4.192369011053E-01
H29  2.130938500226E-01  3.266998867144E-01  3.752908254992E-01
H30 -2.130938500226E-01 -3.266998867144E-01 -3.752908254992E-01
H31  1.877080643818E-01  3.509073709946E-01  2.192431227344E-01
H32 -1.877080643818E-01 -3.509073709946E-01 -2.192431227344E-01
H33  1.550672417866E-01  3.790131809671E-01  6.249625916243E-02
H34 -1.550672417866E-01 -3.790131809671E-01 -6.249625916243E-02
H35 -1.245793065194E-01 -4.049279272147E-01  9.416336751450E-02
H36  1.245793065194E-01  4.049279272147E-01 -9.416336751450E-02
C37 -4.534152974576E-01 -4.354469508047E-01  3.963992178560E-01
C38  4.534152974576E-01  4.354469508047E-01 -3.963992178560E-01
C39  4.922335821927E-01 -3.200915857664E-01  3.260090498125E-01
C40 -4.922335821927E-01  3.200915857664E-01 -3.260090498125E-01
C41 -4.895004054509E-01 -4.168438144828E-01  2.400789376575E-01
C42  4.895004054509E-01  4.168438144828E-01 -2.400789376575E-01
C43  4.568613779169E-01 -3.026544946545E-01  1.675214398595E-01
C44 -4.568613779169E-01  3.026544946545E-01 -1.675214398595E-01
C45  4.765078121097E-01 -3.984854489998E-01  8.327134465713E-02
C46 -4.765078121097E-01  3.984854489998E-01 -8.327134465713E-02
C47  4.224054853270E-01 -2.844909563583E-01  9.617891162953E-03
C48 -4.224054853270E-01  2.844909563583E-01 -9.617891162953E-03
C49 -4.448030926282E-01  3.791946830508E-01  7.319829315875E-02
C50  4.448030926282E-01 -3.791946830508E-01 -7.319829315875E-02
C51 -3.914319537032E-01  2.644899046954E-01  1.476698740533E-01
C52  3.914319537032E-01 -2.644899046954E-01 -1.476698740533E-01
C53 -4.116315877853E-01  3.607464497015E-01  2.299197321489E-01
C54  4.116315877853E-01 -3.607464497015E-01 -2.299197321489E-01
C55 -3.549159818696E-01  2.468588548062E-01  3.063766440575E-01
C56  3.549159818696E-01 -2.468588548062E-01 -3.063766440575E-01
C57 -3.747197583809E-01  3.457394442991E-01  3.867044658742E-01
C58  3.747197583809E-01 -3.457394442991E-01 -3.867044658742E-01
H59 -4.686986555252E-01 -3.585324027953E-01  4.618978649494E-01
H60  4.686986555252E-01  3.585324027953E-01 -4.618978649494E-01
H61  4.326446917339E-01 -1.512437828867E-01  3.339382321263E-01
H62 -4.326446917339E-01  1.512437828867E-01 -3.339382321263E-01
H63  3.969569303872E-01 -1.337711095549E-01  1.752652536915E-01
H64 -3.969569303872E-01  1.337711095549E-01 -1.752652536915E-01
H65  3.603671511013E-01 -1.168262990159E-01  1.697617553028E-02
H66 -3.603671511013E-01  1.168262990159E-01 -1.697617553028E-02
H67 -3.308844979914E-01  9.607838516104E-02  1.400740729933E-01
H68  3.308844979914E-01 -9.607838516104E-02 -1.400740729933E-01
H69 -2.934890752535E-01  7.914771948567E-02  2.990747131520E-01
H70  2.934890752535E-01 -7.914771948567E-02 -2.990747131520E-01
H71 -3.306345100640E-01  2.572056900421E-01  4.449297887129E-01
H72  3.306345100640E-01 -2.572056900421E-01 -4.449297887129E-01


#===END

data_OPT_STEP_24

_symmetry_space_group_name_H-M 'P 1'
_cell_length_a      7.84737698
_cell_length_b      6.15690534
_cell_length_c     16.14553914
_cell_angle_alpha  102.004304
_cell_angle_beta  112.920423
_cell_angle_gamma   85.737200

loop_
_atom_site_label
_atom_site_fract_x
_atom_site_fract_y
_atom_site_fract_z
C1  1.246343404071E-01  3.946008382256E-02  4.066809681265E-01
C2 -1.246343404071E-01 -3.946008382256E-02 -4.066809681265E-01
C3 -2.215721161505E-02 -2.680532448894E-01  2.789907953779E-01
C4  2.215721161505E-02  2.680532448894E-01 -2.789907953779E-01
C5  3.843845885742E-02 -1.780360285039E-01  3.712103515758E-01
C6 -3.843845885742E-02  1.780360285039E-01 -3.712103515758E-01
C7  1.494954440978E-01  1.589038120318E-01  3.488871085255E-01
C8 -1.494954440978E-01 -1.589038120318E-01 -3.488871085255E-01
C9  9.133008109691E-02  6.952525669008E-02  2.515285737339E-01
C10 -9.133008109691E-02 -6.952525669008E-02 -2.515285737339E-01
C11  1.180671039384E-01  1.862436991494E-01  1.917021789183E-01
C12 -1.180671039384E-01 -1.862436991494E-01 -1.917021789183E-01
C13  6.013650347231E-02  9.652431662859E-02  9.587195929097E-02
C14 -6.013650347231E-02 -9.652431662859E-02 -9.587195929097E-02
C15  8.755586294846E-02  2.126715293337E-01  3.502204210768E-02
C16 -8.755586294846E-02 -2.126715293337E-01 -3.502204210768E-02
C17 -2.976270514227E-02 -1.223739624048E-01  5.986265195925E-02
C18  2.976270514227E-02  1.223739624048E-01 -5.986265195925E-02
C19 -5.671942923139E-02 -2.386698438157E-01  1.216968354117E-01
C20  5.671942923139E-02  2.386698438157E-01 -1.216968354117E-01
C21  1.799067275037E-03 -1.490485732687E-01  2.155905989394E-01
C22 -1.799067275037E-03  1.490485732687E-01 -2.155905989394E-01
H23  1.705765573691E-01  1.100046168436E-01  4.813294625966E-01
H24 -1.705765573691E-01 -1.100046168436E-01 -4.813294625966E-01
H25 -8.950645638321E-02 -4.346389150519E-01  2.516152571160E-01
H26  8.950645638321E-02  4.346389150519E-01 -2.516152571160E-01
H27  2.057544000557E-02 -2.719449308325E-01  4.192359030484E-01
H28 -2.057544000557E-02  2.719449308325E-01 -4.192359030484E-01
H29  2.126524174943E-01  3.279709918091E-01  3.753885958712E-01
H30 -2.126524174943E-01 -3.279709918091E-01 -3.753885958712E-01
H31  1.876311978139E-01  3.516265078456E-01  2.191909176966E-01
H32 -1.876311978139E-01 -3.516265078456E-01 -2.191909176966E-01
H33  1.552670859001E-01  3.792860162530E-01  6.237917522960E-02
H34 -1.552670859001E-01 -3.792860162530E-01 -6.237917522960E-02
H35 -1.242935824363E-01 -4.053828539094E-01  9.432250360352E-02
H36  1.242935824363E-01  4.053828539094E-01 -9.432250360352E-02
C37 -4.531770411772E-01 -4.356603646399E-01  3.963912081222E-01
C38  4.531770411772E-01  4.356603646399E-01 -3.963912081222E-01
C39  4.918594529864E-01 -3.203544214217E-01  3.259042020721E-01
C40 -4.918594529864E-01  3.203544214217E-01 -3.259042020721E-01
C41 -4.901044171026E-01 -4.173541277693E-01  2.399339026215E-01
C42  4.901044171026E-01  4.173541277693E-01 -2.399339026215E-01
C43  4.556686766891E-01 -3.032260947916E-01  1.672762675843E-01
C44 -4.556686766891E-01  3.032260947916E-01 -1.672762675843E-01
C45  4.760373761381E-01 -3.987120964088E-01  8.317600587551E-02
C46 -4.760373761381E-01  3.987120964088E-01 -8.317600587551E-02
C47  4.224769602510E-01 -2.840951986300E-01  9.633400886821E-03
C48 -4.224769602510E-01  2.840951986300E-01 -9.633400886821E-03
C49 -4.450322033487E-01  3.787351783982E-01  7.314638827918E-02
C50  4.450322033487E-01 -3.787351783982E-01 -7.314638827918E-02
C51 -3.915022199421E-01  2.638598687189E-01  1.476400159519E-01
C52  3.915022199421E-01 -2.638598687189E-01 -1.476400159519E-01
C53 -4.115947552882E-01  3.602044905419E-01  2.298872179761E-01
C54  4.115947552882E-01 -3.602044905419E-01 -2.298872179761E-01
C55 -3.545840531323E-01  2.462409304887E-01  3.063912020819E-01
C56  3.545840531323E-01 -2.462409304887E-01 -3.063912020819E-01
C57 -3.742528345316E-01  3.452300067533E-01  3.867216743488E-01
C58  3.742528345316E-01 -3.452300067533E-01 -3.867216743488E-01
H59 -4.683791236070E-01 -3.586957582184E-01  4.619134701800E-01
H60  4.683791236070E-01  3.586957582184E-01 -4.619134701800E-01
H61  4.321437731871E-01 -1.512951564011E-01  3.337948009240E-01
H62 -4.321437731871E-01  1.512951564011E-01 -3.337948009240E-01
H63  3.949989667159E-01 -1.344680823019E-01  1.748766968338E-01
H64 -3.949989667159E-01  1.344680823019E-01 -1.748766968338E-01
H65  3.607062406071E-01 -1.160120592920E-01  1.704385739046E-02
H66 -3.607062406071E-01  1.160120592920E-01 -1.704385739046E-02
H67 -3.308738112650E-01  9.518615182647E-02  1.400621397060E-01
H68  3.308738112650E-01 -9.518615182647E-02 -1.400621397060E-01
H69 -2.934998608162E-01  7.801934517734E-02  2.990217342387E-01
H70  2.934998608162E-01 -7.801934517734E-02 -2.990217342387E-01
H71 -3.299972163218E-01  2.565346126901E-01  4.449669163242E-01
H72  3.299972163218E-01 -2.565346126901E-01 -4.449669163242E-01


#===END

data_OPT_STEP_25

_symmetry_space_group_name_H-M 'P 1'
_cell_length_a      7.87612274
_cell_length_b      6.15698821
_cell_length_c     16.14799505
_cell_angle_alpha  101.965656
_cell_angle_beta  112.922831
_cell_angle_gamma   85.746213

loop_
_atom_site_label
_atom_site_fract_x
_atom_site_fract_y
_atom_site_fract_z
C1  1.255065206699E-01  4.082098533619E-02  4.069486690487E-01
C2 -1.255065206699E-01 -4.082098533619E-02 -4.069486690487E-01
C3 -2.117792921451E-02 -2.673246564644E-01  2.792885409210E-01
C4  2.117792921451E-02  2.673246564644E-01 -2.792885409210E-01
C5  3.839025861703E-02 -1.762651398519E-01  3.714465265462E-01
C6 -3.839025861703E-02  1.762651398519E-01 -3.714465265462E-01
C7  1.496198880305E-01  1.605763455193E-01  3.490564155257E-01
C8 -1.496198880305E-01 -1.605763455193E-01 -3.490564155257E-01
C9  9.114701530135E-02  7.080256627060E-02  2.516152797520E-01
C10 -9.114701530135E-02 -7.080256627060E-02 -2.516152797520E-01
C11  1.184732703380E-01  1.868054283576E-01  1.917332846100E-01
C12 -1.184732703380E-01 -1.868054283576E-01 -1.917332846100E-01
C13  6.002123887994E-02  9.684914138454E-02  9.585568774298E-02
C14 -6.002123887994E-02 -9.684914138454E-02 -9.585568774298E-02
C15  8.743512070325E-02  2.127116829351E-01  3.486085316402E-02
C16 -8.743512070325E-02 -2.127116829351E-01 -3.486085316402E-02
C17 -2.949124911808E-02 -1.220534940562E-01  5.996633443271E-02
C18  2.949124911808E-02  1.220534940562E-01 -5.996633443271E-02
C19 -5.591225246644E-02 -2.384412485778E-01  1.219787595035E-01
C20  5.591225246644E-02  2.384412485778E-01 -1.219787595035E-01
C21  3.206541549251E-03 -1.487354698544E-01  2.158730481794E-01
C22 -3.206541549251E-03  1.487354698544E-01 -2.158730481794E-01
H23  1.717555914999E-01  1.113705855014E-01  4.816087151807E-01
H24 -1.717555914999E-01 -1.113705855014E-01 -4.816087151807E-01
H25 -8.910847166717E-02 -4.334218531094E-01  2.519476932172E-01
H26  8.910847166717E-02  4.334218531094E-01 -2.519476932172E-01
H27  1.849071955734E-02 -2.687629318007E-01  4.193484377269E-01
H28 -1.849071955734E-02  2.687629318007E-01 -4.193484377269E-01
H29  2.142998544319E-01  3.288352381694E-01  3.755659234395E-01
H30 -2.142998544319E-01 -3.288352381694E-01 -3.755659234395E-01
H31  1.888953581750E-01  3.515627513456E-01  2.191755881793E-01
H32 -1.888953581750E-01 -3.515627513456E-01 -2.191755881793E-01
H33  1.569431996527E-01  3.780077904043E-01  6.224897314713E-02
H34 -1.569431996527E-01 -3.780077904043E-01 -6.224897314713E-02
H35 -1.257693908665E-01 -4.035669994949E-01  9.454771594702E-02
H36  1.257693908665E-01  4.035669994949E-01 -9.454771594702E-02
C37 -4.520812843538E-01 -4.344473267569E-01  3.966191864473E-01
C38  4.520812843538E-01  4.344473267569E-01 -3.966191864473E-01
C39  4.914928693557E-01 -3.200614894399E-01  3.257808367369E-01
C40 -4.914928693557E-01  3.200614894399E-01 -3.257808367369E-01
C41 -4.891770596068E-01 -4.166095995437E-01  2.400780569256E-01
C42  4.891770596068E-01  4.166095995437E-01 -2.400780569256E-01
C43  4.554739884528E-01 -3.032473335808E-01  1.671313480535E-01
C44 -4.554739884528E-01  3.032473335808E-01 -1.671313480535E-01
C45  4.761265538975E-01 -3.987486532127E-01  8.311473396296E-02
C46 -4.761265538975E-01  3.987486532127E-01 -8.311473396296E-02
C47  4.225583472722E-01 -2.841246412113E-01  9.510342649074E-03
C48 -4.225583472722E-01  2.841246412113E-01 -9.510342649074E-03
C49 -4.439780828688E-01  3.793438517112E-01  7.341769834632E-02
C50  4.439780828688E-01 -3.793438517112E-01 -7.341769834632E-02
C51 -3.891873168843E-01  2.652358535330E-01  1.482276393512E-01
C52  3.891873168843E-01 -2.652358535330E-01 -1.482276393512E-01
C53 -4.101041487375E-01  3.611656157946E-01  2.302726044707E-01
C54  4.101041487375E-01 -3.611656157946E-01 -2.302726044707E-01
C55 -3.528861267946E-01  2.474955657080E-01  3.068808224287E-01
C56  3.528861267946E-01 -2.474955657080E-01 -3.068808224287E-01
C57 -3.743840575719E-01  3.455064837209E-01  3.868782338795E-01
C58  3.743840575719E-01 -3.455064837209E-01 -3.868782338795E-01
H59 -4.685025220083E-01 -3.583168718338E-01  4.619168012727E-01
H60  4.685025220083E-01  3.583168718338E-01 -4.619168012727E-01
H61  4.311470607532E-01 -1.514525262950E-01  3.334075783565E-01
H62 -4.311470607532E-01  1.514525262950E-01 -3.334075783565E-01
H63  3.954969511959E-01 -1.342336386951E-01  1.747303900331E-01
H64 -3.954969511959E-01  1.342336386951E-01 -1.747303900331E-01
H65  3.621858435240E-01 -1.153541418953E-01  1.706468837651E-02
H66 -3.621858435240E-01  1.153541418953E-01 -1.706468837651E-02
H67 -3.274678738469E-01  9.717456608394E-02  1.409667800943E-01
H68  3.274678738469E-01 -9.717456608394E-02 -1.409667800943E-01
H69 -2.906277767599E-01  7.987974965886E-02  2.998148148677E-01
H70  2.906277767599E-01 -7.987974965886E-02 -2.998148148677E-01
H71 -3.305846633233E-01  2.564204655300E-01  4.451087904813E-01
H72  3.305846633233E-01 -2.564204655300E-01 -4.451087904813E-01


#===END

data_OPT_STEP_26

_symmetry_space_group_name_H-M 'P 1'
_cell_length_a      7.88017865
_cell_length_b      6.15605255
_cell_length_c     16.14645139
_cell_angle_alpha  101.964183
_cell_angle_beta  112.928111
_cell_angle_gamma   85.729601

loop_
_atom_site_label
_atom_site_fract_x
_atom_site_fract_y
_atom_site_fract_z
C1  1.252740100521E-01  4.116749046821E-02  4.069882755449E-01
C2 -1.252740100521E-01 -4.116749046821E-02 -4.069882755449E-01
C3 -2.175586564169E-02 -2.667219225329E-01  2.793059804686E-01
C4  2.175586564169E-02  2.667219225329E-01 -2.793059804686E-01
C5  3.799239507127E-02 -1.758174194595E-01  3.714836661078E-01
C6 -3.799239507127E-02  1.758174194595E-01 -3.714836661078E-01
C7  1.498073965984E-01  1.606082622087E-01  3.491012540675E-01
C8 -1.498073965984E-01 -1.606082622087E-01 -3.491012540675E-01
C9  9.147999044482E-02  7.067975337150E-02  2.516590134530E-01
C10 -9.147999044482E-02 -7.067975337150E-02 -2.516590134530E-01
C11  1.190122921689E-01  1.865043944143E-01  1.917734360150E-01
C12 -1.190122921689E-01 -1.865043944143E-01 -1.917734360150E-01
C13  6.037307057226E-02  9.662276993097E-02  9.588498811867E-02
C14 -6.037307057226E-02 -9.662276993097E-02 -9.588498811867E-02
C15  8.760915302261E-02  2.125186603263E-01  3.486932960234E-02
C16 -8.760915302261E-02 -2.125186603263E-01 -3.486932960234E-02
C17 -2.930707145705E-02 -1.221404261696E-01  5.998661290114E-02
C18  2.930707145705E-02  1.221404261696E-01 -5.998661290114E-02
C19 -5.563844379539E-02 -2.385582450181E-01  1.220143052105E-01
C20  5.563844379539E-02  2.385582450181E-01 -1.220143052105E-01
C21  3.233171310344E-03 -1.486331725963E-01  2.159147497935E-01
C22 -3.233171310344E-03  1.486331725963E-01 -2.159147497935E-01
H23  1.715436835266E-01  1.116990599481E-01  4.816531974747E-01
H24 -1.715436835266E-01 -1.116990599481E-01 -4.816531974747E-01
H25 -8.996302082512E-02 -4.326023611507E-01  2.519580248499E-01
H26  8.996302082512E-02  4.326023611507E-01 -2.519580248499E-01
H27  1.793214604604E-02 -2.683709442424E-01  4.193343763150E-01
H28 -1.793214604604E-02  2.683709442424E-01 -4.193343763150E-01
H29  2.145628044440E-01  3.287898010381E-01  3.755941054103E-01
H30 -2.145628044440E-01 -3.287898010381E-01 -3.755941054103E-01
H31  1.883365631466E-01  3.520309618806E-01  2.191459696121E-01
H32 -1.883365631466E-01 -3.520309618806E-01 -2.191459696121E-01
H33  1.567893499129E-01  3.780082632081E-01  6.221841724038E-02
H34 -1.567893499129E-01 -3.780082632081E-01 -6.221841724038E-02
H35 -1.245280468906E-01 -4.042729274341E-01  9.465677327078E-02
H36  1.245280468906E-01  4.042729274341E-01 -9.465677327078E-02
C37 -4.522131456515E-01 -4.343584326300E-01  3.966759742378E-01
C38  4.522131456515E-01  4.343584326300E-01 -3.966759742378E-01
C39  4.918695190567E-01 -3.196452772705E-01  3.258952683924E-01
C40 -4.918695190567E-01  3.196452772705E-01 -3.258952683924E-01
C41 -4.888789790087E-01 -4.163232370012E-01  2.401654776794E-01
C42  4.888789790087E-01  4.163232370012E-01 -2.401654776794E-01
C43  4.556878787610E-01 -3.030141796707E-01  1.671787933359E-01
C44 -4.556878787610E-01  3.030141796707E-01 -1.671787933359E-01
C45  4.764567428751E-01 -3.985118102378E-01  8.317653622714E-02
C46 -4.764567428751E-01  3.985118102378E-01 -8.317653622714E-02
C47  4.224269939079E-01 -2.841171140891E-01  9.465923220779E-03
C48 -4.224269939079E-01  2.841171140891E-01 -9.465923220779E-03
C49 -4.439791848973E-01  3.793442765111E-01  7.343896482402E-02
C50  4.439791848973E-01 -3.793442765111E-01 -7.343896482402E-02
C51 -3.890632316022E-01  2.652992342427E-01  1.483109422000E-01
C52  3.890632316022E-01 -2.652992342427E-01 -1.483109422000E-01
C53 -4.098335436563E-01  3.613720936593E-01  2.303851304901E-01
C54  4.098335436563E-01 -3.613720936593E-01 -2.303851304901E-01
C55 -3.527242824206E-01  2.476851715488E-01  3.070222107048E-01
C56  3.527242824206E-01 -2.476851715488E-01 -3.070222107048E-01
C57 -3.740483572227E-01  3.458796469699E-01  3.870568869602E-01
C58  3.740483572227E-01 -3.458796469699E-01 -3.870568869602E-01
H59 -4.686129275202E-01 -3.582970895439E-01  4.619129143999E-01
H60  4.686129275202E-01  3.582970895439E-01 -4.619129143999E-01
H61  4.317883731641E-01 -1.508870915796E-01  3.335518597771E-01
H62 -4.317883731641E-01  1.508870915796E-01 -3.335518597771E-01
H63  3.954648937330E-01 -1.341037866381E-01  1.747112547671E-01
H64 -3.954648937330E-01  1.341037866381E-01 -1.747112547671E-01
H65  3.619725903522E-01 -1.153477628782E-01  1.698245397017E-02
H66 -3.619725903522E-01  1.153477628782E-01 -1.698245397017E-02
H67 -3.277700746736E-01  9.694261278181E-02  1.409856001758E-01
H68  3.277700746736E-01 -9.694261278181E-02 -1.409856001758E-01
H69 -2.906285252463E-01  7.992729936496E-02  2.999477165178E-01
H70  2.906285252463E-01 -7.992729936496E-02 -2.999477165178E-01
H71 -3.302271462923E-01  2.568140033867E-01  4.453249868830E-01
H72  3.302271462923E-01 -2.568140033867E-01 -4.453249868830E-01


#===END

data_OPT_STEP_27

_symmetry_space_group_name_H-M 'P 1'
_cell_length_a      7.89517825
_cell_length_b      6.14819104
_cell_length_c     16.14269911
_cell_angle_alpha  101.947570
_cell_angle_beta  112.959822
_cell_angle_gamma   85.756960

loop_
_atom_site_label
_atom_site_fract_x
_atom_site_fract_y
_atom_site_fract_z
C1  1.251052301670E-01  4.117363297259E-02  4.070666029661E-01
C2 -1.251052301670E-01 -4.117363297259E-02 -4.070666029661E-01
C3 -2.190958838033E-02 -2.667996566778E-01  2.793909122212E-01
C4  2.190958838033E-02  2.667996566778E-01 -2.793909122212E-01
C5  3.751555405204E-02 -1.756949154135E-01  3.715743580776E-01
C6 -3.751555405204E-02  1.756949154135E-01 -3.715743580776E-01
C7  1.501020921738E-01  1.603992445694E-01  3.491900163587E-01
C8 -1.501020921738E-01 -1.603992445694E-01 -3.491900163587E-01
C9  9.156137698287E-02  7.069947193862E-02  2.517437091733E-01
C10 -9.156137698287E-02 -7.069947193862E-02 -2.517437091733E-01
C11  1.187017904797E-01  1.869395104720E-01  1.918112604418E-01
C12 -1.187017904797E-01 -1.869395104720E-01 -1.918112604418E-01
C13  6.063959977387E-02  9.662925680446E-02  9.591225510214E-02
C14 -6.063959977387E-02 -9.662925680446E-02 -9.591225510214E-02
C15  8.828026948934E-02  2.122056952753E-01  3.493454637404E-02
C16 -8.828026948934E-02 -2.122056952753E-01 -3.493454637404E-02
C17 -2.944661303652E-02 -1.221219802013E-01  5.999794452470E-02
C18  2.944661303652E-02  1.221219802013E-01 -5.999794452470E-02
C19 -5.565054025445E-02 -2.386661461060E-01  1.220565634838E-01
C20  5.565054025445E-02  2.386661461060E-01 -1.220565634838E-01
C21  2.992526953558E-03 -1.485542537151E-01  2.159763017588E-01
C22 -2.992526953558E-03  1.485542537151E-01 -2.159763017588E-01
H23  1.713075416149E-01  1.117907840027E-01  4.817369816518E-01
H24 -1.713075416149E-01 -1.117907840027E-01 -4.817369816518E-01
H25 -8.986917725893E-02 -4.329686633470E-01  2.520547541778E-01
H26  8.986917725893E-02  4.329686633470E-01 -2.520547541778E-01
H27  1.788854587396E-02 -2.689671913934E-01  4.193840952862E-01
H28 -1.788854587396E-02  2.689671913934E-01 -4.193840952862E-01
H29  2.144375043656E-01  3.288579910243E-01  3.756356150801E-01
H30 -2.144375043656E-01 -3.288579910243E-01 -3.756356150801E-01
H31  1.883691827015E-01  3.523232819467E-01  2.191888771582E-01
H32 -1.883691827015E-01 -3.523232819467E-01 -2.191888771582E-01
H33  1.565260527383E-01  3.785238269432E-01  6.219582169554E-02
H34 -1.565260527383E-01 -3.785238269432E-01 -6.219582169554E-02
H35 -1.235944413734E-01 -4.051267130356E-01  9.478535469011E-02
H36  1.235944413734E-01  4.051267130356E-01 -9.478535469011E-02
C37 -4.531499441521E-01 -4.349503975242E-01  3.966006577451E-01
C38  4.531499441521E-01  4.349503975242E-01 -3.966006577451E-01
C39  4.917796480391E-01 -3.197886493371E-01  3.258930405336E-01
C40 -4.917796480391E-01  3.197886493371E-01 -3.258930405336E-01
C41 -4.894525312305E-01 -4.166921885125E-01  2.400982757213E-01
C42  4.894525312305E-01  4.166921885125E-01 -2.400982757213E-01
C43  4.557434160985E-01 -3.029747519518E-01  1.671690361708E-01
C44 -4.557434160985E-01  3.029747519518E-01 -1.671690361708E-01
C45  4.765578976285E-01 -3.984285892053E-01  8.319350905853E-02
C46 -4.765578976285E-01  3.984285892053E-01 -8.319350905853E-02
C47  4.234525202211E-01 -2.834429937412E-01  9.594429956885E-03
C48 -4.234525202211E-01  2.834429937412E-01 -9.594429956885E-03
C49 -4.447185971797E-01  3.788861193602E-01  7.336169912068E-02
C50  4.447185971797E-01 -3.788861193602E-01 -7.336169912068E-02
C51 -3.898074865855E-01  2.648675715714E-01  1.483206538409E-01
C52  3.898074865855E-01 -2.648675715714E-01 -1.483206538409E-01
C53 -4.098997056679E-01  3.613362839737E-01  2.305050233524E-01
C54  4.098997056679E-01 -3.613362839737E-01 -2.305050233524E-01
C55 -3.526386440743E-01  2.477076031612E-01  3.072673687652E-01
C56  3.526386440743E-01 -2.477076031612E-01 -3.072673687652E-01
C57 -3.739919681779E-01  3.459382593263E-01  3.872856086391E-01
C58  3.739919681779E-01 -3.459382593263E-01 -3.872856086391E-01
H59 -4.687036806256E-01 -3.583491968641E-01  4.619497226115E-01
H60  4.687036806256E-01  3.583491968641E-01 -4.619497226115E-01
H61  4.312931735805E-01 -1.511640959609E-01  3.334187231451E-01
H62 -4.312931735805E-01  1.511640959609E-01 -3.334187231451E-01
H63  3.947974250763E-01 -1.343739609180E-01  1.745239429008E-01
H64 -3.947974250763E-01  1.343739609180E-01 -1.745239429008E-01
H65  3.632123246774E-01 -1.144522485456E-01  1.711942727885E-02
H66 -3.632123246774E-01  1.144522485456E-01 -1.711942727885E-02
H67 -3.288822207608E-01  9.624347991277E-02  1.409743606330E-01
H68  3.288822207608E-01 -9.624347991277E-02 -1.409743606330E-01
H69 -2.903128378635E-01  8.006864447593E-02  3.003146015775E-01
H70  2.903128378635E-01 -8.006864447593E-02 -3.003146015775E-01
H71 -3.297301756548E-01  2.572886973162E-01  4.457293600680E-01
H72  3.297301756548E-01 -2.572886973162E-01 -4.457293600680E-01


#===END

data_OPT_STEP_28

_symmetry_space_group_name_H-M 'P 1'
_cell_length_a      7.89879182
_cell_length_b      6.13627464
_cell_length_c     16.13936680
_cell_angle_alpha  101.931831
_cell_angle_beta  112.961563
_cell_angle_gamma   85.735537

loop_
_atom_site_label
_atom_site_fract_x
_atom_site_fract_y
_atom_site_fract_z
C1  1.248203448947E-01  4.142474301296E-02  4.071240097046E-01
C2 -1.248203448947E-01 -4.142474301296E-02 -4.071240097046E-01
C3 -2.264451251292E-02 -2.666147788196E-01  2.794581924984E-01
C4  2.264451251292E-02  2.666147788196E-01 -2.794581924984E-01
C5  3.699770626320E-02 -1.756027508523E-01  3.716532721149E-01
C6 -3.699770626320E-02  1.756027508523E-01 -3.716532721149E-01
C7  1.497457438418E-01  1.609332623386E-01  3.492255618035E-01
C8 -1.497457438418E-01 -1.609332623386E-01 -3.492255618035E-01
C9  9.146628816417E-02  7.094623806450E-02  2.517856877632E-01
C10 -9.146628816417E-02 -7.094623806450E-02 -2.517856877632E-01
C11  1.188544558116E-01  1.871469898513E-01  1.918345848439E-01
C12 -1.188544558116E-01 -1.871469898513E-01 -1.918345848439E-01
C13  6.071326401458E-02  9.671912839652E-02  9.592670036123E-02
C14 -6.071326401458E-02 -9.671912839652E-02 -9.592670036123E-02
C15  8.800519054591E-02  2.126498086463E-01  3.488312431607E-02
C16 -8.800519054591E-02 -2.126498086463E-01 -3.488312431607E-02
C17 -2.915442095174E-02 -1.224449590879E-01  6.006591002695E-02
C18  2.915442095174E-02  1.224449590879E-01 -6.006591002695E-02
C19 -5.549339189440E-02 -2.390616455955E-01  1.221369344743E-01
C20  5.549339189440E-02  2.390616455955E-01 -1.221369344743E-01
C21  2.786336307789E-03 -1.485573346879E-01  2.160491729373E-01
C22 -2.786336307789E-03  1.485573346879E-01 -2.160491729373E-01
H23  1.710394148360E-01  1.121220849893E-01  4.817997598259E-01
H24 -1.710394148360E-01 -1.121220849893E-01 -4.817997598259E-01
H25 -9.119086294449E-02 -4.326496776476E-01  2.521026868189E-01
H26  9.119086294449E-02  4.326496776476E-01 -2.521026868189E-01
H27  1.738975421900E-02 -2.691571006314E-01  4.194543151988E-01
H28 -1.738975421900E-02  2.691571006314E-01 -4.194543151988E-01
H29  2.140556444833E-01  3.297122349294E-01  3.757018375943E-01
H30 -2.140556444833E-01 -3.297122349294E-01 -3.757018375943E-01
H31  1.881369310353E-01  3.530461098214E-01  2.191567467434E-01
H32 -1.881369310353E-01 -3.530461098214E-01 -2.191567467434E-01
H33  1.563045105178E-01  3.791498764410E-01  6.211089707125E-02
H34 -1.563045105178E-01 -3.791498764410E-01 -6.211089707125E-02
H35 -1.232162638781E-01 -4.059188284273E-01  9.490743281714E-02
H36  1.232162638781E-01  4.059188284273E-01 -9.490743281714E-02
C37 -4.531217427384E-01 -4.348013537646E-01  3.966789090094E-01
C38  4.531217427384E-01  4.348013537646E-01 -3.966789090094E-01
C39  4.918314602375E-01 -3.193468592052E-01  3.259557000138E-01
C40 -4.918314602375E-01  3.193468592052E-01 -3.259557000138E-01
C41 -4.894419193025E-01 -4.164733212292E-01  2.401456581445E-01
C42  4.894419193025E-01  4.164733212292E-01 -2.401456581445E-01
C43  4.557707288872E-01 -3.025089787398E-01  1.671895385795E-01
C44 -4.557707288872E-01  3.025089787398E-01 -1.671895385795E-01
C45  4.763671548838E-01 -3.983016487032E-01  8.316458012989E-02
C46 -4.763671548838E-01  3.983016487032E-01 -8.316458012989E-02
C47  4.226359900145E-01 -2.834499629905E-01  9.413949839883E-03
C48 -4.226359900145E-01  2.834499629905E-01 -9.413949839883E-03
C49 -4.445176374922E-01  3.787691527014E-01  7.343384641939E-02
C50  4.445176374922E-01 -3.787691527014E-01 -7.343384641939E-02
C51 -3.899442655589E-01  2.643344270666E-01  1.483613035198E-01
C52  3.899442655589E-01 -2.643344270666E-01 -1.483613035198E-01
C53 -4.104155894059E-01  3.607726158337E-01  2.304890264763E-01
C54  4.104155894059E-01 -3.607726158337E-01 -2.304890264763E-01
C55 -3.532491040859E-01  2.468885613765E-01  3.072743598239E-01
C56  3.532491040859E-01 -2.468885613765E-01 -3.072743598239E-01
C57 -3.742684014747E-01  3.454709629711E-01  3.873401090672E-01
C58  3.742684014747E-01 -3.454709629711E-01 -3.873401090672E-01
H59 -4.684144141080E-01 -3.580999704523E-01  4.620606103759E-01
H60  4.684144141080E-01  3.580999704523E-01 -4.620606103759E-01
H61  4.318893989174E-01 -1.501021135836E-01  3.335623906116E-01
H62 -4.318893989174E-01  1.501021135836E-01 -3.335623906116E-01
H63  3.951600982651E-01 -1.333871677298E-01  1.745755461047E-01
H64 -3.951600982651E-01  1.333871677298E-01 -1.745755461047E-01
H65  3.615599617062E-01 -1.145717616606E-01  1.675865242982E-02
H66 -3.615599617062E-01  1.145717616606E-01 -1.675865242982E-02
H67 -3.291084418981E-01  9.530467791959E-02  1.410187421104E-01
H68  3.291084418981E-01 -9.530467791959E-02 -1.410187421104E-01
H69 -2.912620360702E-01  7.871371509974E-02  3.002803023248E-01
H70  2.912620360702E-01 -7.871371509974E-02 -3.002803023248E-01
H71 -3.295670050678E-01  2.569603689255E-01  4.458983171938E-01
H72  3.295670050678E-01 -2.569603689255E-01 -4.458983171938E-01


#===END

data_OPT_STEP_29

_symmetry_space_group_name_H-M 'P 1'
_cell_length_a      7.91379543
_cell_length_b      6.13183168
_cell_length_c     16.13546525
_cell_angle_alpha  101.913555
_cell_angle_beta  112.957916
_cell_angle_gamma   85.733882

loop_
_atom_site_label
_atom_site_fract_x
_atom_site_fract_y
_atom_site_fract_z
C1  1.248017303447E-01  4.184912331397E-02  4.072740986137E-01
C2 -1.248017303447E-01 -4.184912331397E-02 -4.072740986137E-01
C3 -2.278058660588E-02 -2.662519034070E-01  2.796219500526E-01
C4  2.278058660588E-02  2.662519034070E-01 -2.796219500526E-01
C5  3.740837625560E-02 -1.755815039177E-01  3.718489784468E-01
C6 -3.740837625560E-02  1.755815039177E-01 -3.718489784468E-01
C7  1.503850163396E-01  1.608919058503E-01  3.493501544498E-01
C8 -1.503850163396E-01 -1.608919058503E-01 -3.493501544498E-01
C9  9.231656362207E-02  7.065768218203E-02  2.519062409149E-01
C10 -9.231656362207E-02 -7.065768218203E-02 -2.519062409149E-01
C11  1.196220510652E-01  1.868462083198E-01  1.918949678836E-01
C12 -1.196220510652E-01 -1.868462083198E-01 -1.918949678836E-01
C13  6.064210176470E-02  9.689239608054E-02  9.595915189373E-02
C14 -6.064210176470E-02 -9.689239608054E-02 -9.595915189373E-02
C15  8.764725507049E-02  2.129288825319E-01  3.481170680871E-02
C16 -8.764725507049E-02 -2.129288825319E-01 -3.481170680871E-02
C17 -2.942619177913E-02 -1.221736619881E-01  6.012807155727E-02
C18  2.942619177913E-02  1.221736619881E-01 -6.012807155727E-02
C19 -5.611618070605E-02 -2.384760228514E-01  1.222214777079E-01
C20  5.611618070605E-02  2.384760228514E-01 -1.222214777079E-01
C21  2.762203734529E-03 -1.483348052250E-01  2.161565402615E-01
C22 -2.762203734529E-03  1.483348052250E-01 -2.161565402615E-01
H23  1.707698272278E-01  1.127631686718E-01  4.819467388855E-01
H24 -1.707698272278E-01 -1.127631686718E-01 -4.819467388855E-01
H25 -9.145757896489E-02 -4.322364496688E-01  2.522805012469E-01
H26  9.145757896489E-02  4.322364496688E-01 -2.522805012469E-01
H27  1.676663596931E-02 -2.685209384157E-01  4.195969602871E-01
H28 -1.676663596931E-02  2.685209384157E-01 -4.195969602871E-01
H29  2.150932318489E-01  3.294507976535E-01  3.757850183365E-01
H30 -2.150932318489E-01 -3.294507976535E-01 -3.757850183365E-01
H31  1.877323482026E-01  3.536284602572E-01  2.191219676198E-01
H32 -1.877323482026E-01 -3.536284602572E-01 -2.191219676198E-01
H33  1.563890364414E-01  3.791444091292E-01  6.202291186068E-02
H34 -1.563890364414E-01 -3.791444091292E-01 -6.202291186068E-02
H35 -1.243896848026E-01 -4.050064803153E-01  9.498668550224E-02
H36  1.243896848026E-01  4.050064803153E-01 -9.498668550224E-02
C37 -4.528297716813E-01 -4.338447264183E-01  3.968584065227E-01
C38  4.528297716813E-01  4.338447264183E-01 -3.968584065227E-01
C39  4.914109369502E-01 -3.188308871113E-01  3.259376713563E-01
C40 -4.914109369502E-01  3.188308871113E-01 -3.259376713563E-01
C41 -4.896541337849E-01 -4.160702670669E-01  2.401691190074E-01
C42  4.896541337849E-01  4.160702670669E-01 -2.401691190074E-01
C43  4.549950069471E-01 -3.025620666904E-01  1.670144941402E-01
C44 -4.549950069471E-01  3.025620666904E-01 -1.670144941402E-01
C45  4.765300973292E-01 -3.980094435754E-01  8.318601626943E-02
C46 -4.765300973292E-01  3.980094435754E-01 -8.318601626943E-02
C47  4.224146225127E-01 -2.834644537193E-01  9.274658619549E-03
C48 -4.224146225127E-01  2.834644537193E-01 -9.274658619549E-03
C49 -4.442690593483E-01  3.789831980189E-01  7.356708541910E-02
C50  4.442690593483E-01 -3.789831980189E-01 -7.356708541910E-02
C51 -3.897350827483E-01  2.646035694714E-01  1.485737830800E-01
C52  3.897350827483E-01 -2.646035694714E-01 -1.485737830800E-01
C53 -4.104651589996E-01  3.611092586163E-01  2.306382194329E-01
C54  4.104651589996E-01 -3.611092586163E-01 -2.306382194329E-01
C55 -3.529415113484E-01  2.475190176381E-01  3.075712126488E-01
C56  3.529415113484E-01 -2.475190176381E-01 -3.075712126488E-01
C57 -3.735614499706E-01  3.465013360210E-01  3.876685201165E-01
C58  3.735614499706E-01 -3.465013360210E-01 -3.876685201165E-01
H59 -4.685117793329E-01 -3.572899190325E-01  4.622248009215E-01
H60  4.685117793329E-01  3.572899190325E-01 -4.622248009215E-01
H61  4.319585620080E-01 -1.492450788509E-01  3.335568293245E-01
H62 -4.319585620080E-01  1.492450788509E-01 -3.335568293245E-01
H63  3.939755760968E-01 -1.335635185713E-01  1.742401150031E-01
H64 -3.939755760968E-01  1.335635185713E-01 -1.742401150031E-01
H65  3.618599443712E-01 -1.142167530819E-01  1.662893694583E-02
H66 -3.618599443712E-01  1.142167530819E-01 -1.662893694583E-02
H67 -3.286167327049E-01  9.564004868753E-02  1.413657092687E-01
H68  3.286167327049E-01 -9.564004868753E-02 -1.413657092687E-01
H69 -2.911506692457E-01  7.913438793247E-02  3.006058713925E-01
H70  2.911506692457E-01 -7.913438793247E-02 -3.006058713925E-01
H71 -3.290168031979E-01  2.579714913209E-01  4.462790485513E-01
H72  3.290168031979E-01 -2.579714913209E-01 -4.462790485513E-01


#===END

data_OPT_STEP_30

_symmetry_space_group_name_H-M 'P 1'
_cell_length_a      7.91615905
_cell_length_b      6.13068691
_cell_length_c     16.13470106
_cell_angle_alpha  101.903778
_cell_angle_beta  112.959519
_cell_angle_gamma   85.739093

loop_
_atom_site_label
_atom_site_fract_x
_atom_site_fract_y
_atom_site_fract_z
C1  1.247563872308E-01  4.192870408959E-02  4.073056162534E-01
C2 -1.247563872308E-01 -4.192870408959E-02 -4.073056162534E-01
C3 -2.291506270643E-02 -2.662205274218E-01  2.796396754052E-01
C4  2.291506270643E-02  2.662205274218E-01 -2.796396754052E-01
C5  3.711206958773E-02 -1.753834606685E-01  3.718692134493E-01
C6 -3.711206958773E-02  1.753834606685E-01 -3.718692134493E-01
C7  1.502862954870E-01  1.610202534369E-01  3.493702710792E-01
C8 -1.502862954870E-01 -1.610202534369E-01 -3.493702710792E-01
C9  9.206086399174E-02  7.082985253167E-02  2.519083341835E-01
C10 -9.206086399174E-02 -7.082985253167E-02 -2.519083341835E-01
C11  1.195373611527E-01  1.869193135472E-01  1.919008770986E-01
C12 -1.195373611527E-01 -1.869193135472E-01 -1.919008770986E-01
C13  6.068740344383E-02  9.684937339250E-02  9.596042904224E-02
C14 -6.068740344383E-02 -9.684937339250E-02 -9.596042904224E-02
C15  8.779358884262E-02  2.128756916073E-01  3.481303046847E-02
C16 -8.779358884262E-02 -2.128756916073E-01 -3.481303046847E-02
C17 -2.932586886527E-02 -1.222735411223E-01  6.013439847985E-02
C18  2.932586886527E-02  1.222735411223E-01 -6.013439847985E-02
C19 -5.594708511954E-02 -2.386719179276E-01  1.222418379617E-01
C20  5.594708511954E-02  2.386719179276E-01 -1.222418379617E-01
C21  2.753405280444E-03 -1.483538600888E-01  2.161773811639E-01
C22 -2.753405280444E-03  1.483538600888E-01 -2.161773811639E-01
H23  1.709938448995E-01  1.126817526338E-01  4.819953925847E-01
H24 -1.709938448995E-01 -1.126817526338E-01 -4.819953925847E-01
H25 -9.151216225165E-02 -4.322872463304E-01  2.523063741387E-01
H26  9.151216225165E-02  4.322872463304E-01 -2.523063741387E-01
H27  1.643829070494E-02 -2.683084991499E-01  4.196234805173E-01
H28 -1.643829070494E-02  2.683084991499E-01 -4.196234805173E-01
H29  2.151983343238E-01  3.294845657507E-01  3.757982830771E-01
H30 -2.151983343238E-01 -3.294845657507E-01 -3.757982830771E-01
H31  1.881246622262E-01  3.533781921342E-01  2.191501779201E-01
H32 -1.881246622262E-01 -3.533781921342E-01 -2.191501779201E-01
H33  1.565766004969E-01  3.790912784869E-01  6.202735092535E-02
H34 -1.565766004969E-01 -3.790912784869E-01 -6.202735092535E-02
H35 -1.241419924794E-01 -4.052769292304E-01  9.501097278970E-02
H36  1.241419924794E-01  4.052769292304E-01 -9.501097278970E-02
C37 -4.527203709816E-01 -4.336592877060E-01  3.969156838008E-01
C38  4.527203709816E-01  4.336592877060E-01 -3.969156838008E-01
C39  4.915414218259E-01 -3.186272384949E-01  3.259767522592E-01
C40 -4.915414218259E-01  3.186272384949E-01 -3.259767522592E-01
C41 -4.895352102750E-01 -4.159305758677E-01  2.402043988927E-01
C42  4.895352102750E-01  4.159305758677E-01 -2.402043988927E-01
C43  4.551298913951E-01 -3.023993224176E-01  1.670348741039E-01
C44 -4.551298913951E-01  3.023993224176E-01 -1.670348741039E-01
C45  4.762915838621E-01 -3.981110156037E-01  8.313280400711E-02
C46 -4.762915838621E-01  3.981110156037E-01 -8.313280400711E-02
C47  4.222328979601E-01 -2.835330758074E-01  9.212389892626E-03
C48 -4.222328979601E-01  2.835330758074E-01 -9.212389892626E-03
C49 -4.443704564953E-01  3.789280109535E-01  7.356997347137E-02
C50  4.443704564953E-01 -3.789280109535E-01 -7.356997347137E-02
C51 -3.896360614393E-01  2.646478318772E-01  1.486341445978E-01
C52  3.896360614393E-01 -2.646478318772E-01 -1.486341445978E-01
C53 -4.102734765546E-01  3.612359920653E-01  2.307073470277E-01
C54  4.102734765546E-01 -3.612359920653E-01 -2.307073470277E-01
C55 -3.528297464745E-01  2.475979059723E-01  3.076415470609E-01
C56  3.528297464745E-01 -2.475979059723E-01 -3.076415470609E-01
C57 -3.735873071962E-01  3.465483924881E-01  3.877231742617E-01
C58  3.735873071962E-01 -3.465483924881E-01 -3.877231742617E-01
H59 -4.684924072300E-01 -3.571328466603E-01  4.622540218282E-01
H60  4.684924072300E-01  3.571328466603E-01 -4.622540218282E-01
H61  4.317213629213E-01 -1.492085839923E-01  3.335118828572E-01
H62 -4.317213629213E-01  1.492085839923E-01 -3.335118828572E-01
H63  3.942931982974E-01 -1.332904170098E-01  1.742721032466E-01
H64 -3.942931982974E-01  1.332904170098E-01 -1.742721032466E-01
H65  3.615401647945E-01 -1.143497055044E-01  1.651731635365E-02
H66 -3.615401647945E-01  1.143497055044E-01 -1.651731635365E-02
H67 -3.286349003717E-01  9.559621312246E-02  1.414237236876E-01
H68  3.286349003717E-01 -9.559621312246E-02 -1.414237236876E-01
H69 -2.908584593999E-01  7.928764887088E-02  3.007207628585E-01
H70  2.908584593999E-01 -7.928764887088E-02 -3.007207628585E-01
H71 -3.290365758937E-01  2.579945297728E-01  4.463494579670E-01
H72  3.290365758937E-01 -2.579945297728E-01 -4.463494579670E-01


#===END

data_OPT_STEP_31

_symmetry_space_group_name_H-M 'P 1'
_cell_length_a      7.92235676
_cell_length_b      6.12605380
_cell_length_c     16.13222913
_cell_angle_alpha  101.891837
_cell_angle_beta  112.969759
_cell_angle_gamma   85.737098

loop_
_atom_site_label
_atom_site_fract_x
_atom_site_fract_y
_atom_site_fract_z
C1  1.248314504797E-01  4.171499277268E-02  4.073812224201E-01
C2 -1.248314504797E-01 -4.171499277268E-02 -4.073812224201E-01
C3 -2.277607175360E-02 -2.666097769764E-01  2.796782759068E-01
C4  2.277607175360E-02  2.666097769764E-01 -2.796782759068E-01
C5  3.683000435529E-02 -1.754539258272E-01  3.719136027304E-01
C6 -3.683000435529E-02  1.754539258272E-01 -3.719136027304E-01
C7  1.501562173287E-01  1.610359086014E-01  3.494381749409E-01
C8 -1.501562173287E-01 -1.610359086014E-01 -3.494381749409E-01
C9  9.182900389195E-02  7.088064976105E-02  2.519446771802E-01
C10 -9.182900389195E-02 -7.088064976105E-02 -2.519446771802E-01
C11  1.192346727448E-01  1.871491741079E-01  1.919283709127E-01
C12 -1.192346727448E-01 -1.871491741079E-01 -1.919283709127E-01
C13  6.080239982802E-02  9.677774570993E-02  9.597505086644E-02
C14 -6.080239982802E-02 -9.677774570993E-02 -9.597505086644E-02
C15  8.811335625447E-02  2.127787793777E-01  3.484678764758E-02
C16 -8.811335625447E-02 -2.127787793777E-01 -3.484678764758E-02
C17 -2.926053852792E-02 -1.224391280547E-01  6.013109203366E-02
C18  2.926053852792E-02  1.224391280547E-01 -6.013109203366E-02
C19 -5.575654597400E-02 -2.390234710828E-01  1.222609073851E-01
C20  5.575654597400E-02  2.390234710828E-01 -1.222609073851E-01
C21  2.950325834586E-03 -1.486763629455E-01  2.162193831481E-01
C22 -2.950325834586E-03  1.486763629455E-01 -2.162193831481E-01
H23  1.708850992801E-01  1.126159133427E-01  4.820764031380E-01
H24 -1.708850992801E-01 -1.126159133427E-01 -4.820764031380E-01
H25 -9.185171032578E-02 -4.324448116350E-01  2.522981610249E-01
H26  9.185171032578E-02  4.324448116350E-01 -2.522981610249E-01
H27  1.639388612381E-02 -2.686413781780E-01  4.196766209461E-01
H28 -1.639388612381E-02  2.686413781780E-01 -4.196766209461E-01
H29  2.149455970688E-01  3.297021678931E-01  3.758773749054E-01
H30 -2.149455970688E-01 -3.297021678931E-01 -3.758773749054E-01
H31  1.883405276376E-01  3.533006788706E-01  2.192153647896E-01
H32 -1.883405276376E-01 -3.533006788706E-01 -2.192153647896E-01
H33  1.568233765591E-01  3.791274818282E-01  6.206653453248E-02
H34 -1.568233765591E-01 -3.791274818282E-01 -6.206653453248E-02
H35 -1.240707920824E-01 -4.056312708681E-01  9.500857421688E-02
H36  1.240707920824E-01  4.056312708681E-01 -9.500857421688E-02
C37 -4.530083129447E-01 -4.336068434927E-01  3.969536149815E-01
C38  4.530083129447E-01  4.336068434927E-01 -3.969536149815E-01
C39  4.915730962288E-01 -3.183615132533E-01  3.260193273917E-01
C40 -4.915730962288E-01  3.183615132533E-01 -3.260193273917E-01
C41 -4.894723338630E-01 -4.157505140861E-01  2.402532214779E-01
C42  4.894723338630E-01  4.157505140861E-01 -2.402532214779E-01
C43  4.555129034335E-01 -3.019945284683E-01  1.670965396891E-01
C44 -4.555129034335E-01  3.019945284683E-01 -1.670965396891E-01
C45  4.766072470068E-01 -3.978521316694E-01  8.317964918536E-02
C46 -4.766072470068E-01  3.978521316694E-01 -8.317964918536E-02
C47  4.224903260123E-01 -2.832689895195E-01  9.208557352343E-03
C48 -4.224903260123E-01  2.832689895195E-01 -9.208557352343E-03
C49 -4.438901014710E-01  3.791513530240E-01  7.369911987200E-02
C50  4.438901014710E-01 -3.791513530240E-01 -7.369911987200E-02
C51 -3.894522396066E-01  2.646731094248E-01  1.487489713772E-01
C52  3.894522396066E-01 -2.646731094248E-01 -1.487489713772E-01
C53 -4.103067766099E-01  3.612295823535E-01  2.307896018547E-01
C54  4.103067766099E-01 -3.612295823535E-01 -2.307896018547E-01
C55 -3.529838117543E-01  2.474778460062E-01  3.077462067238E-01
C56  3.529838117543E-01 -2.474778460062E-01 -3.077462067238E-01
C57 -3.739690994018E-01  3.464167742168E-01  3.878049210416E-01
C58  3.739690994018E-01 -3.464167742168E-01 -3.878049210416E-01
H59 -4.684634154931E-01 -3.568475890743E-01  4.623110935153E-01
H60  4.684634154931E-01  3.568475890743E-01 -4.623110935153E-01
H61  4.315469154562E-01 -1.489578010580E-01  3.334810011713E-01
H62 -4.315469154562E-01  1.489578010580E-01 -3.334810011713E-01
H63  3.946268783151E-01 -1.328175860913E-01  1.742915506369E-01
H64 -3.946268783151E-01  1.328175860913E-01 -1.742915506369E-01
H65  3.614700927275E-01 -1.141666408278E-01  1.641817553267E-02
H66 -3.614700927275E-01  1.141666408278E-01 -1.641817553267E-02
H67 -3.282453299952E-01  9.564257961367E-02  1.416120113747E-01
H68  3.282453299952E-01 -9.564257961367E-02 -1.416120113747E-01
H69 -2.908973715565E-01  7.913325804571E-02  3.008781160268E-01
H70  2.908973715565E-01 -7.913325804571E-02 -3.008781160268E-01
H71 -3.292213002671E-01  2.579648304557E-01  4.465112914502E-01
H72  3.292213002671E-01 -2.579648304557E-01 -4.465112914502E-01


#===END

data_OPT_STEP_32

_symmetry_space_group_name_H-M 'P 1'
_cell_length_a      7.92782205
_cell_length_b      6.12081190
_cell_length_c     16.12866684
_cell_angle_alpha  101.873037
_cell_angle_beta  112.974705
_cell_angle_gamma   85.743372

loop_
_atom_site_label
_atom_site_fract_x
_atom_site_fract_y
_atom_site_fract_z
C1  1.246698598324E-01  4.170855418359E-02  4.074520789741E-01
C2 -1.246698598324E-01 -4.170855418359E-02 -4.074520789741E-01
C3 -2.299487594786E-02 -2.667420760352E-01  2.797397426182E-01
C4  2.299487594786E-02  2.667420760352E-01 -2.797397426182E-01
C5  3.657076413192E-02 -1.755323863223E-01  3.719851715283E-01
C6 -3.657076413192E-02  1.755323863223E-01 -3.719851715283E-01
C7  1.499905474779E-01  1.611404320787E-01  3.494960622458E-01
C8 -1.499905474779E-01 -1.611404320787E-01 -3.494960622458E-01
C9  9.173454290974E-02  7.091668512293E-02  2.519907780330E-01
C10 -9.173454290974E-02 -7.091668512293E-02 -2.519907780330E-01
C11  1.193649445584E-01  1.871225563609E-01  1.919658488769E-01
C12 -1.193649445584E-01 -1.871225563609E-01 -1.919658488769E-01
C13  6.078318468412E-02  9.683266486367E-02  9.599286052909E-02
C14 -6.078318468412E-02 -9.683266486367E-02 -9.599286052909E-02
C15  8.812064887290E-02  2.129124902545E-01  3.485001510030E-02
C16 -8.812064887290E-02 -2.129124902545E-01 -3.485001510030E-02
C17 -2.931193474850E-02 -1.224929781421E-01  6.014725219869E-02
C18  2.931193474850E-02  1.224929781421E-01 -6.014725219869E-02
C19 -5.583454278393E-02 -2.391731178364E-01  1.222929630601E-01
C20  5.583454278393E-02  2.391731178364E-01 -1.222929630601E-01
C21  2.708940250905E-03 -1.486778355849E-01  2.162609856703E-01
C22 -2.708940250905E-03  1.486778355849E-01 -2.162609856703E-01
H23  1.708637761556E-01  1.125385393158E-01  4.821668984038E-01
H24 -1.708637761556E-01 -1.125385393158E-01 -4.821668984038E-01
H25 -9.173840008665E-02 -4.328849921423E-01  2.523845693358E-01
H26  9.173840008665E-02  4.328849921423E-01 -2.523845693358E-01
H27  1.607992018154E-02 -2.688116498794E-01  4.197467081539E-01
H28 -1.607992018154E-02  2.688116498794E-01 -4.197467081539E-01
H29  2.148554838220E-01  3.298545781011E-01  3.759293180421E-01
H30 -2.148554838220E-01 -3.298545781011E-01 -3.759293180421E-01
H31  1.887366667242E-01  3.531884093270E-01  2.192611950477E-01
H32 -1.887366667242E-01 -3.531884093270E-01 -2.192611950477E-01
H33  1.569438260264E-01  3.792946400016E-01  6.207261533062E-02
H34 -1.569438260264E-01 -3.792946400016E-01 -6.207261533062E-02
H35 -1.240678443805E-01 -4.059292791459E-01  9.505041560433E-02
H36  1.240678443805E-01  4.059292791459E-01 -9.505041560433E-02
C37 -4.530606239836E-01 -4.334344920791E-01  3.970369185761E-01
C38  4.530606239836E-01  4.334344920791E-01 -3.970369185761E-01
C39  4.913186842984E-01 -3.182986236991E-01  3.260106886071E-01
C40 -4.913186842984E-01  3.182986236991E-01 -3.260106886071E-01
C41 -4.895824446501E-01 -4.156821253724E-01  2.402768221316E-01
C42  4.895824446501E-01  4.156821253724E-01 -2.402768221316E-01
C43  4.553637222005E-01 -3.018987293650E-01  1.670698523813E-01
C44 -4.553637222005E-01  3.018987293650E-01 -1.670698523813E-01
C45  4.762712971706E-01 -3.979480342561E-01  8.311746873483E-02
C46 -4.762712971706E-01  3.979480342561E-01 -8.311746873483E-02
C47  4.224792397914E-01 -2.831352595069E-01  9.155872740524E-03
C48 -4.224792397914E-01  2.831352595069E-01 -9.155872740524E-03
C49 -4.443796462615E-01  3.788329844753E-01  7.365971126432E-02
C50  4.443796462615E-01 -3.788329844753E-01 -7.365971126432E-02
C51 -3.895861436914E-01  2.645191842879E-01  1.488339890138E-01
C52  3.895861436914E-01 -2.645191842879E-01 -1.488339890138E-01
C53 -4.101498762239E-01  3.613273513874E-01  2.309162404985E-01
C54  4.101498762239E-01 -3.613273513874E-01 -2.309162404985E-01
C55 -3.526836763593E-01  2.476224553376E-01  3.079561564775E-01
C56  3.526836763593E-01 -2.476224553376E-01 -3.079561564775E-01
C57 -3.738585827884E-01  3.465524319432E-01  3.879812219806E-01
C58  3.738585827884E-01 -3.465524319432E-01 -3.879812219806E-01
H59 -4.683007050598E-01 -3.564364221021E-01  4.624315766342E-01
H60  4.683007050598E-01  3.564364221021E-01 -4.624315766342E-01
H61  4.312476070756E-01 -1.488182094553E-01  3.334180179768E-01
H62 -4.312476070756E-01  1.488182094553E-01 -3.334180179768E-01
H63  3.947743130711E-01 -1.324655237498E-01  1.742795626085E-01
H64 -3.947743130711E-01  1.324655237498E-01 -1.742795626085E-01
H65  3.614014682975E-01 -1.139528030404E-01  1.631667917556E-02
H66 -3.614014682975E-01  1.139528030404E-01 -1.631667917556E-02
H67 -3.283908964358E-01  9.537316840466E-02  1.417324921519E-01
H68  3.283908964358E-01 -9.537316840466E-02 -1.417324921519E-01
H69 -2.904520084166E-01  7.926208846686E-02  3.011579806173E-01
H70  2.904520084166E-01 -7.926208846686E-02 -3.011579806173E-01
H71 -3.289767648575E-01  2.581895849723E-01  4.467640134787E-01
H72  3.289767648575E-01 -2.581895849723E-01 -4.467640134787E-01


#===END

data_OPT_STEP_33

_symmetry_space_group_name_H-M 'P 1'
_cell_length_a      7.94212591
_cell_length_b      6.11368093
_cell_length_c     16.12202216
_cell_angle_alpha  101.819865
_cell_angle_beta  112.959038
_cell_angle_gamma   85.781660

loop_
_atom_site_label
_atom_site_fract_x
_atom_site_fract_y
_atom_site_fract_z
C1  1.246886409836E-01  4.176652462802E-02  4.076002308950E-01
C2 -1.246886409836E-01 -4.176652462802E-02 -4.076002308950E-01
C3 -2.350342201362E-02 -2.664974012609E-01  2.799316028255E-01
C4  2.350342201362E-02  2.664974012609E-01 -2.799316028255E-01
C5  3.651314885175E-02 -1.755722219548E-01  3.721972771036E-01
C6 -3.651314885175E-02  1.755722219548E-01 -3.721972771036E-01
C7  1.502696825035E-01  1.611140305133E-01  3.495861777023E-01
C8 -1.502696825035E-01 -1.611140305133E-01 -3.495861777023E-01
C9  9.152064094502E-02  7.117031870979E-02  2.520588113523E-01
C10 -9.152064094502E-02 -7.117031870979E-02 -2.520588113523E-01
C11  1.192161746139E-01  1.874049036406E-01  1.919743654405E-01
C12 -1.192161746139E-01 -1.874049036406E-01 -1.919743654405E-01
C13  6.073751013588E-02  9.695192534126E-02  9.599410210121E-02
C14 -6.073751013588E-02 -9.695192534126E-02 -9.599410210121E-02
C15  8.813049424029E-02  2.130449943900E-01  3.478095547814E-02
C16 -8.813049424029E-02 -2.130449943900E-01 -3.478095547814E-02
C17 -2.936985190129E-02 -1.225064612876E-01  6.022519729513E-02
C18  2.936985190129E-02  1.225064612876E-01 -6.022519729513E-02
C19 -5.602196096225E-02 -2.391476582417E-01  1.224268654012E-01
C20  5.602196096225E-02  2.391476582417E-01 -1.224268654012E-01
C21  2.400657711141E-03 -1.485038716701E-01  2.163927264116E-01
C22 -2.400657711141E-03  1.485038716701E-01 -2.163927264116E-01
H23  1.713554048923E-01  1.123074447324E-01  4.823447557425E-01
H24 -1.713554048923E-01 -1.123074447324E-01 -4.823447557425E-01
H25 -9.219637784359E-02 -4.327804424686E-01  2.526267666522E-01
H26  9.219637784359E-02  4.327804424686E-01 -2.526267666522E-01
H27  1.577653851416E-02 -2.687780978396E-01  4.199899564248E-01
H28 -1.577653851416E-02  2.687780978396E-01 -4.199899564248E-01
H29  2.155270140702E-01  3.296425702865E-01  3.759686264327E-01
H30 -2.155270140702E-01 -3.296425702865E-01 -3.759686264327E-01
H31  1.886939245702E-01  3.535126871506E-01  2.192281983345E-01
H32 -1.886939245702E-01 -3.535126871506E-01 -2.192281983345E-01
H33  1.569505479421E-01  3.795632356781E-01  6.195433683946E-02
H34 -1.569505479421E-01 -3.795632356781E-01 -6.195433683946E-02
H35 -1.242672227775E-01 -4.060031895567E-01  9.523582148242E-02
H36  1.242672227775E-01  4.060031895567E-01 -9.523582148242E-02
C37 -4.525600927887E-01 -4.324182589706E-01  3.973166234983E-01
C38  4.525600927887E-01  4.324182589706E-01 -3.973166234983E-01
C39  4.916526968912E-01 -3.174454721926E-01  3.261469590484E-01
C40 -4.916526968912E-01  3.174454721926E-01 -3.261469590484E-01
C41 -4.896868807220E-01 -4.152775590003E-01  2.403445600413E-01
C42  4.896868807220E-01  4.152775590003E-01 -2.403445600413E-01
C43  4.550925995278E-01 -3.016845668650E-01  1.669915317883E-01
C44 -4.550925995278E-01  3.016845668650E-01 -1.669915317883E-01
C45  4.759483530957E-01 -3.979311032490E-01  8.304407145418E-02
C46 -4.759483530957E-01  3.979311032490E-01 -8.304407145418E-02
C47  4.219867596225E-01 -2.832851423020E-01  8.932118352595E-03
C48 -4.219867596225E-01  2.832851423020E-01 -8.932118352595E-03
C49 -4.445222683392E-01  3.788283674792E-01  7.375788554709E-02
C50  4.445222683392E-01 -3.788283674792E-01 -7.375788554709E-02
C51 -3.895675962746E-01  2.646458419703E-01  1.490797390433E-01
C52  3.895675962746E-01 -2.646458419703E-01 -1.490797390433E-01
C53 -4.103505855829E-01  3.615578790502E-01  2.311091963676E-01
C54  4.103505855829E-01 -3.615578790502E-01 -2.311091963676E-01
C55 -3.529201447733E-01  2.479273642835E-01  3.082646660305E-01
C56  3.529201447733E-01 -2.479273642835E-01 -3.082646660305E-01
C57 -3.736691313850E-01  3.472607341230E-01  3.883305653833E-01
C58  3.736691313850E-01 -3.472607341230E-01 -3.883305653833E-01
H59 -4.680765267312E-01 -3.554023885679E-01  4.626763133989E-01
H60  4.680765267312E-01  3.554023885679E-01 -4.626763133989E-01
H61  4.314119751118E-01 -1.479551499314E-01  3.334119936472E-01
H62 -4.314119751118E-01  1.479551499314E-01 -3.334119936472E-01
H63  3.942728078429E-01 -1.322756917775E-01  1.740471601265E-01
H64 -3.942728078429E-01  1.322756917775E-01 -1.740471601265E-01
H65  3.611129348300E-01 -1.139047614862E-01  1.601990552828E-02
H66 -3.611129348300E-01  1.139047614862E-01 -1.601990552828E-02
H67 -3.284704529697E-01  9.535668557877E-02  1.420649762506E-01
H68  3.284704529697E-01 -9.535668557877E-02 -1.420649762506E-01
H69 -2.906925119048E-01  7.948426454429E-02  3.015670273570E-01
H70  2.906925119048E-01 -7.948426454429E-02 -3.015670273570E-01
H71 -3.287858035387E-01  2.589572332765E-01  4.472025375592E-01
H72  3.287858035387E-01 -2.589572332765E-01 -4.472025375592E-01


#===END

data_OPT_STEP_34

_symmetry_space_group_name_H-M 'P 1'
_cell_length_a      7.95398870
_cell_length_b      6.10359884
_cell_length_c     16.11774326
_cell_angle_alpha  101.774752
_cell_angle_beta  112.956549
_cell_angle_gamma   85.790364

loop_
_atom_site_label
_atom_site_fract_x
_atom_site_fract_y
_atom_site_fract_z
C1  1.243383791000E-01  4.175721408741E-02  4.076907926357E-01
C2 -1.243383791000E-01 -4.175721408741E-02 -4.076907926357E-01
C3 -2.357210211185E-02 -2.670302391474E-01  2.800369538733E-01
C4  2.357210211185E-02  2.670302391474E-01 -2.800369538733E-01
C5  3.593637721214E-02 -1.756949959588E-01  3.722883950279E-01
C6 -3.593637721214E-02  1.756949959588E-01 -3.722883950279E-01
C7  1.503034614688E-01  1.610707174405E-01  3.496642530781E-01
C8 -1.503034614688E-01 -1.610707174405E-01 -3.496642530781E-01
C9  9.193354096848E-02  7.080952795185E-02  2.521357297325E-01
C10 -9.193354096848E-02 -7.080952795185E-02 -2.521357297325E-01
C11  1.198605840467E-01  1.870776012699E-01  1.920334823243E-01
C12 -1.198605840467E-01 -1.870776012699E-01 -1.920334823243E-01
C13  6.105534433701E-02  9.680288266606E-02  9.603164107859E-02
C14 -6.105534433701E-02 -9.680288266606E-02 -9.603164107859E-02
C15  8.836903202387E-02  2.131360544837E-01  3.476250006457E-02
C16 -8.836903202387E-02 -2.131360544837E-01 -3.476250006457E-02
C17 -2.934640269832E-02 -1.227185962476E-01  6.026415479022E-02
C18  2.934640269832E-02  1.227185962476E-01 -6.026415479022E-02
C19 -5.610399879743E-02 -2.394805897581E-01  1.224973464774E-01
C20  5.610399879743E-02  2.394805897581E-01 -1.224973464774E-01
C21  2.527350674541E-03 -1.489400568313E-01  2.164783346928E-01
C22 -2.527350674541E-03  1.489400568313E-01 -2.164783346928E-01
H23  1.708857624877E-01  1.124039971829E-01  4.824386396797E-01
H24 -1.708857624877E-01 -1.124039971829E-01 -4.824386396796E-01
H25 -9.216563228761E-02 -4.335675356132E-01  2.527637314102E-01
H26  9.216563228761E-02  4.335675356132E-01 -2.527637314102E-01
H27  1.488508483733E-02 -2.688545559051E-01  4.200876870492E-01
H28 -1.488508483733E-02  2.688545559051E-01 -4.200876870492E-01
H29  2.158348941902E-01  3.296446312957E-01  3.760480924467E-01
H30 -2.158348941902E-01 -3.296446312957E-01 -3.760480924467E-01
H31  1.892602208068E-01  3.534438442712E-01  2.192666156630E-01
H32 -1.892602208068E-01 -3.534438442712E-01 -2.192666156630E-01
H33  1.573637283797E-01  3.797297338437E-01  6.192150250787E-02
H34 -1.573637283797E-01 -3.797297338437E-01 -6.192150250787E-02
H35 -1.244790055870E-01 -4.064421621716E-01  9.531893980023E-02
H36  1.244790055870E-01  4.064421621716E-01 -9.531893980023E-02
C37 -4.524740405718E-01 -4.316871956466E-01  3.974649476154E-01
C38  4.524740405718E-01  4.316871956466E-01 -3.974649476154E-01
C39  4.915105005642E-01 -3.167856560235E-01  3.261588212195E-01
C40 -4.915105005642E-01  3.167856560235E-01 -3.261588212195E-01
C41 -4.895949002942E-01 -4.147393384406E-01  2.404139197937E-01
C42  4.895949002942E-01  4.147393384406E-01 -2.404139197937E-01
C43  4.550658392190E-01 -3.011766240451E-01  1.669372181814E-01
C44 -4.550658392190E-01  3.011766240451E-01 -1.669372181814E-01
C45  4.760663451381E-01 -3.975979352160E-01  8.303760826527E-02
C46 -4.760663451381E-01  3.975979352160E-01 -8.303760826527E-02
C47  4.218546803349E-01 -2.830610125308E-01  8.780236985116E-03
C48 -4.218546803349E-01  2.830610125308E-01 -8.780236985116E-03
C49 -4.442314149931E-01  3.789418631642E-01  7.391374898931E-02
C50  4.442314149931E-01 -3.789418631642E-01 -7.391374898931E-02
C51 -3.893840414491E-01  2.646839907336E-01  1.493159932232E-01
C52  3.893840414491E-01 -2.646839907336E-01 -1.493159932232E-01
C53 -4.100420464723E-01  3.618938561951E-01  2.313374831746E-01
C54  4.100420464723E-01 -3.618938561951E-01 -2.313374831746E-01
C55 -3.523244135714E-01  2.483766957081E-01  3.086422497691E-01
C56  3.523244135714E-01 -2.483766957081E-01 -3.086422497691E-01
C57 -3.731570137299E-01  3.479173545640E-01  3.886678309287E-01
C58  3.731570137299E-01 -3.479173545640E-01 -3.886678309287E-01
H59 -4.680764842612E-01 -3.545474762932E-01  4.628077291913E-01
H60  4.680764842612E-01  3.545474762932E-01 -4.628077291913E-01
H61  4.309455532104E-01 -1.472321664173E-01  3.332726625869E-01
H62 -4.309455532104E-01  1.472321664173E-01 -3.332726625869E-01
H63  3.941558862533E-01 -1.315883743446E-01  1.738735063990E-01
H64 -3.941558862533E-01  1.315883743446E-01 -1.738735063990E-01
H65  3.607392379479E-01 -1.135900371840E-01  1.571980542538E-02
H66 -3.607392379479E-01  1.135900371840E-01 -1.571980542538E-02
H67 -3.285416726696E-01  9.501797904438E-02  1.423557373268E-01
H68  3.285416726696E-01 -9.501797904438E-02 -1.423557373268E-01
H69 -2.899462050489E-01  7.978869573158E-02  3.020637787043E-01
H70  2.899462050489E-01 -7.978869573158E-02 -3.020637787043E-01
H71 -3.282447549649E-01  2.595899084741E-01  4.476170350746E-01
H72  3.282447549649E-01 -2.595899084741E-01 -4.476170350746E-01


#===END

data_OPT_STEP_35

_symmetry_space_group_name_H-M 'P 1'
_cell_length_a      7.99262204
_cell_length_b      6.09078946
_cell_length_c     16.11434318
_cell_angle_alpha  101.710024
_cell_angle_beta  113.029925
_cell_angle_gamma   85.794202

loop_
_atom_site_label
_atom_site_fract_x
_atom_site_fract_y
_atom_site_fract_z
C1  1.241326964548E-01  4.222214358489E-02  4.079590854265E-01
C2 -1.241326964548E-01 -4.222214358489E-02 -4.079590854265E-01
C3 -2.418306801101E-02 -2.666061105073E-01  2.802487400523E-01
C4  2.418306801101E-02  2.666061105073E-01 -2.802487400523E-01
C5  3.565629312175E-02 -1.754043201752E-01  3.725615677091E-01
C6 -3.565629312175E-02  1.754043201752E-01 -3.725615677091E-01
C7  1.499915982269E-01  1.617285252265E-01  3.498734513588E-01
C8 -1.499915982269E-01 -1.617285252265E-01 -3.498734513588E-01
C9  9.170680568572E-02  7.125653266862E-02  2.522792736256E-01
C10 -9.170680568572E-02 -7.125653266862E-02 -2.522792736256E-01
C11  1.194757526299E-01  1.876593674735E-01  1.920952465039E-01
C12 -1.194757526299E-01 -1.876593674735E-01 -1.920952465039E-01
C13  6.064718396887E-02  9.723464790119E-02  9.603850113643E-02
C14 -6.064718396887E-02 -9.723464790119E-02 -9.603850113643E-02
C15  8.816453199864E-02  2.134539774255E-01  3.471209648014E-02
C16 -8.816453199864E-02 -2.134539774255E-01 -3.471209648014E-02
C17 -2.969492405094E-02 -1.225016576079E-01  6.032813528804E-02
C18  2.969492405094E-02  1.225016576079E-01 -6.032813528804E-02
C19 -5.661981223264E-02 -2.392063515973E-01  1.226089738560E-01
C20  5.661981223264E-02  2.392063515973E-01 -1.226089738560E-01
C21  1.910490573320E-03 -1.484541123442E-01  2.166252878810E-01
C22 -1.910490573320E-03  1.484541123442E-01 -2.166252878810E-01
H23  1.704321363154E-01  1.131313898173E-01  4.827321512021E-01
H24 -1.704321363154E-01 -1.131313898173E-01 -4.827321512021E-01
H25 -9.362804929050E-02 -4.327416326037E-01  2.529305796598E-01
H26  9.362804929050E-02  4.327416326037E-01 -2.529305796598E-01
H27  1.470458334982E-02 -2.686678458408E-01  4.204190381099E-01
H28 -1.470458334982E-02  2.686678458408E-01 -4.204190381099E-01
H29  2.154775586099E-01  3.306016089429E-01  3.762932865003E-01
H30 -2.154775586099E-01 -3.306016089429E-01 -3.762932865003E-01
H31  1.886919186295E-01  3.543014926613E-01  2.192998044233E-01
H32 -1.886919186295E-01 -3.543014926613E-01 -2.192998044233E-01
H33  1.572848160415E-01  3.801024038560E-01  6.185111364325E-02
H34 -1.572848160415E-01 -3.801024038560E-01 -6.185111364325E-02
H35 -1.248325378314E-01 -4.064114430245E-01  9.546874369300E-02
H36  1.248325378314E-01  4.064114430245E-01 -9.546874369300E-02
C37 -4.531786851583E-01 -4.313050437628E-01  3.975199858460E-01
C38  4.531786851583E-01  4.313050437628E-01 -3.975199858460E-01
C39  4.907034661589E-01 -3.164624574473E-01  3.260081757723E-01
C40 -4.907034661589E-01  3.164624574473E-01 -3.260081757723E-01
C41 -4.898632717947E-01 -4.143929383135E-01  2.404150974670E-01
C42  4.898632717947E-01  4.143929383135E-01 -2.404150974670E-01
C43  4.550133127965E-01 -3.006984812771E-01  1.667912983381E-01
C44 -4.550133127965E-01  3.006984812771E-01 -1.667912983381E-01
C45  4.758700749687E-01 -3.974793337488E-01  8.292769073759E-02
C46 -4.758700749687E-01  3.974793337488E-01 -8.292769073759E-02
C47  4.222276933433E-01 -2.826008691208E-01  8.595586225634E-03
C48 -4.222276933433E-01  2.826008691208E-01 -8.595586225634E-03
C49 -4.442966466720E-01  3.788698610655E-01  7.409042602714E-02
C50  4.442966466720E-01 -3.788698610655E-01 -7.409042602714E-02
C51 -3.893116143810E-01  2.646650220126E-01  1.496850531644E-01
C52  3.893116143810E-01 -2.646650220126E-01 -1.496850531644E-01
C53 -4.100483749911E-01  3.621078900848E-01  2.316378245423E-01
C54  4.100483749911E-01 -3.621078900848E-01 -2.316378245423E-01
C55 -3.524983504548E-01  2.485078911801E-01  3.090792929887E-01
C56  3.524983504548E-01 -2.485078911801E-01 -3.090792929887E-01
C57 -3.735686886644E-01  3.482049270808E-01  3.890228811608E-01
C58  3.735686886644E-01 -3.482049270808E-01 -3.890228811608E-01
H59 -4.681006746381E-01 -3.536502445665E-01  4.629248943639E-01
H60  4.681006746381E-01  3.536502445665E-01 -4.629248943639E-01
H61  4.305141337573E-01 -1.465264343370E-01  3.329994620056E-01
H62 -4.305141337573E-01  1.465264343370E-01 -3.329994620056E-01
H63  3.943998615239E-01 -1.307664863173E-01  1.735865630693E-01
H64 -3.943998615239E-01  1.307664863173E-01 -1.735865630693E-01
H65  3.607077716845E-01 -1.131736730043E-01  1.526678716484E-02
H66 -3.607077716845E-01  1.131736730043E-01 -1.526678716484E-02
H67 -3.270739380458E-01  9.561531268932E-02  1.431763740320E-01
H68  3.270739380458E-01 -9.561531268932E-02 -1.431763740320E-01
H69 -2.900996087479E-01  7.973517704752E-02  3.026984386400E-01
H70  2.900996087479E-01 -7.973517704752E-02 -3.026984386400E-01
H71 -3.285187158870E-01  2.599494464484E-01  4.481362029906E-01
H72  3.285187158870E-01 -2.599494464484E-01 -4.481362029906E-01


#===END

data_OPT_STEP_36

_symmetry_space_group_name_H-M 'P 1'
_cell_length_a      7.98708634
_cell_length_b      6.08781778
_cell_length_c     16.10780290
_cell_angle_alpha  101.709820
_cell_angle_beta  113.018497
_cell_angle_gamma   85.787831

loop_
_atom_site_label
_atom_site_fract_x
_atom_site_fract_y
_atom_site_fract_z
C1  1.241309431933E-01  4.171825147086E-02  4.080497692799E-01
C2 -1.241309431933E-01 -4.171825147086E-02 -4.080497692799E-01
C3 -2.418227406086E-02 -2.671556131123E-01  2.802691466609E-01
C4  2.418227406086E-02  2.671556131123E-01 -2.802691466609E-01
C5  3.569572094492E-02 -1.760614957018E-01  3.726187650370E-01
C6 -3.569572094492E-02  1.760614957018E-01 -3.726187650370E-01
C7  1.499746508025E-01  1.613935931808E-01  3.499719399503E-01
C8 -1.499746508025E-01 -1.613935931808E-01 -3.499719399503E-01
C9  9.162904524301E-02  7.103419491134E-02  2.523445350335E-01
C10 -9.162904524301E-02 -7.103419491134E-02 -2.523445350335E-01
C11  1.194568790613E-01  1.875568528998E-01  1.921599643508E-01
C12 -1.194568790613E-01 -1.875568528998E-01 -1.921599643508E-01
C13  6.061732613712E-02  9.718875818085E-02  9.607424791065E-02
C14 -6.061732613712E-02 -9.718875818085E-02 -9.607424791065E-02
C15  8.831211876011E-02  2.134515311101E-01  3.476248962889E-02
C16 -8.831211876011E-02 -2.134515311101E-01 -3.476248962889E-02
C17 -2.979711083869E-02 -1.225736907266E-01  6.031582122846E-02
C18  2.979711083869E-02  1.225736907266E-01 -6.031582122846E-02
C19 -5.685678018130E-02 -2.393508804484E-01  1.225905831364E-01
C20  5.685678018130E-02  2.393508804484E-01 -1.225905831364E-01
C21  1.874394376872E-03 -1.487871237908E-01  2.166486521312E-01
C22 -1.874394376872E-03  1.487871237908E-01 -2.166486521312E-01
H23  1.703747114329E-01  1.126053969113E-01  4.828467838395E-01
H24 -1.703747114329E-01 -1.126053969113E-01 -4.828467838395E-01
H25 -9.375735939131E-02 -4.332739473534E-01  2.529010562884E-01
H26  9.375735939131E-02  4.332739473534E-01 -2.529010562884E-01
H27  1.472432350132E-02 -2.695711696153E-01  4.204430654273E-01
H28 -1.472432350132E-02  2.695711696153E-01 -4.204430654273E-01
H29  2.154271219146E-01  3.303794800777E-01  3.763866124189E-01
H30 -2.154271219146E-01 -3.303794800777E-01 -3.763866124189E-01
H31  1.888095859705E-01  3.541799464076E-01  2.193905122205E-01
H32 -1.888095859705E-01 -3.541799464076E-01 -2.193905122205E-01
H33  1.575798299172E-01  3.800575366522E-01  6.192740534612E-02
H34 -1.575798299172E-01 -3.800575366522E-01 -6.192740534612E-02
H35 -1.254549592200E-01 -4.063862355214E-01  9.539301152906E-02
H36  1.254549592200E-01  4.063862355214E-01 -9.539301152906E-02
C37 -4.534916187565E-01 -4.310213548993E-01  3.976275343487E-01
C38  4.534916187565E-01  4.310213548993E-01 -3.976275343487E-01
C39  4.904842097666E-01 -3.161290451651E-01  3.260793227350E-01
C40 -4.904842097666E-01  3.161290451651E-01 -3.260793227350E-01
C41 -4.901967950329E-01 -4.143076204672E-01  2.404437781975E-01
C42  4.901967950329E-01  4.143076204672E-01 -2.404437781975E-01
C43  4.546951899596E-01 -3.005943610341E-01  1.667824383964E-01
C44 -4.546951899596E-01  3.005943610341E-01 -1.667824383964E-01
C45  4.757586262173E-01 -3.974150065431E-01  8.293164957923E-02
C46 -4.757586262173E-01  3.974150065431E-01 -8.293164957923E-02
C47  4.221907350589E-01 -2.824758378472E-01  8.573810922773E-03
C48 -4.221907350589E-01  2.824758378472E-01 -8.573810922773E-03
C49 -4.444253738076E-01  3.787743026293E-01  7.410493976260E-02
C50  4.444253738076E-01 -3.787743026293E-01 -7.410493976260E-02
C51 -3.894375141614E-01  2.645775870031E-01  1.497508643279E-01
C52  3.894375141614E-01 -2.645775870031E-01 -1.497508643279E-01
C53 -4.102574508990E-01  3.620943706449E-01  2.317135339299E-01
C54  4.102574508990E-01 -3.620943706449E-01 -2.317135339299E-01
C55 -3.524983655155E-01  2.486388432051E-01  3.092527434105E-01
C56  3.524983655155E-01 -2.486388432051E-01 -3.092527434105E-01
C57 -3.736695251872E-01  3.484482509401E-01  3.892039104078E-01
C58  3.736695251872E-01 -3.484482509401E-01 -3.892039104078E-01
H59 -4.681043925781E-01 -3.530712322741E-01  4.630889847219E-01
H60  4.681043925781E-01  3.530712322741E-01 -4.630889847219E-01
H61  4.304269013405E-01 -1.460241104614E-01  3.330691694957E-01
H62 -4.304269013405E-01  1.460241104614E-01 -3.330691694957E-01
H63  3.939841377981E-01 -1.306063229710E-01  1.735475607684E-01
H64 -3.939841377981E-01  1.306063229710E-01 -1.735475607684E-01
H65  3.607385427138E-01 -1.128937780064E-01  1.524997302408E-02
H66 -3.607385427138E-01  1.128937780064E-01 -1.524997302408E-02
H67 -3.273320444765E-01  9.532338112767E-02  1.432295682107E-01
H68  3.273320444765E-01 -9.532338112767E-02 -1.432295682107E-01
H69 -2.899963725612E-01  7.980595845645E-02  3.029091837903E-01
H70  2.899963725612E-01 -7.980595845645E-02 -3.029091837903E-01
H71 -3.284313556094E-01  2.603579371266E-01  4.484103540787E-01
H72  3.284313556094E-01 -2.603579371266E-01 -4.484103540787E-01


#===END

data_OPT_STEP_37

_symmetry_space_group_name_H-M 'P 1'
_cell_length_a      7.98972056
_cell_length_b      6.08480069
_cell_length_c     16.10542483
_cell_angle_alpha  101.708619
_cell_angle_beta  113.004655
_cell_angle_gamma   85.804416

loop_
_atom_site_label
_atom_site_fract_x
_atom_site_fract_y
_atom_site_fract_z
C1  1.242788152749E-01  4.165314291732E-02  4.080421270400E-01
C2 -1.242788152749E-01 -4.165314291732E-02 -4.080421270400E-01
C3 -2.433303335210E-02 -2.671612509010E-01  2.803080151619E-01
C4  2.433303335209E-02  2.671612509010E-01 -2.803080151619E-01
C5  3.560695847795E-02 -1.760084753062E-01  3.726571759769E-01
C6 -3.560695847795E-02  1.760084753062E-01 -3.726571759769E-01
C7  1.498792936970E-01  1.614596588728E-01  3.499332043742E-01
C8 -1.498792936970E-01 -1.614596588728E-01 -3.499332043742E-01
C9  9.119642926330E-02  7.130750144165E-02  2.523176500959E-01
C10 -9.119642926330E-02 -7.130750144165E-02 -2.523176500959E-01
C11  1.191769879662E-01  1.878170251746E-01  1.921353880907E-01
C12 -1.191769879662E-01 -1.878170251746E-01 -1.921353880907E-01
C13  6.066620967142E-02  9.721820442605E-02  9.606747354023E-02
C14 -6.066620967142E-02 -9.721820442605E-02 -9.606747354023E-02
C15  8.837804858609E-02  2.135319137989E-01  3.477321117685E-02
C16 -8.837804858609E-02 -2.135319137989E-01 -3.477321117685E-02
C17 -2.977440567339E-02 -1.226740463818E-01  6.031602752707E-02
C18  2.977440567339E-02  1.226740463818E-01 -6.031602752707E-02
C19 -5.662254511448E-02 -2.396548131276E-01  1.226215004511E-01
C20  5.662254511448E-02  2.396548131276E-01 -1.226215004511E-01
C21  1.762198001663E-03 -1.488161382634E-01  2.166691678989E-01
C22 -1.762198001663E-03  1.488161382634E-01 -2.166691678989E-01
H23  1.709179345068E-01  1.123641279666E-01  4.828491972310E-01
H24 -1.709179345068E-01 -1.123641279666E-01 -4.828491972310E-01
H25 -9.281824952210E-02 -4.340336963366E-01  2.530392195000E-01
H26  9.281824952210E-02  4.340336963366E-01 -2.530392195000E-01
H27  1.501812916610E-02 -2.696451077119E-01  4.205597972951E-01
H28 -1.501812916610E-02  2.696451077119E-01 -4.205597972951E-01
H29  2.153002916115E-01  3.304176872812E-01  3.763301549331E-01
H30 -2.153002916115E-01 -3.304176872812E-01 -3.763301549331E-01
H31  1.890560964752E-01  3.541479503102E-01  2.193826447154E-01
H32 -1.890560964752E-01 -3.541479503102E-01 -2.193826447154E-01
H33  1.574758261169E-01  3.803739212696E-01  6.193100631748E-02
H34 -1.574758261169E-01 -3.803739212696E-01 -6.193100631748E-02
H35 -1.253158945266E-01 -4.067024654191E-01  9.542848000429E-02
H36  1.253158945266E-01  4.067024654191E-01 -9.542848000429E-02
C37 -4.529910778397E-01 -4.309850097466E-01  3.977513761775E-01
C38  4.529910778397E-01  4.309850097466E-01 -3.977513761775E-01
C39  4.907349105359E-01 -3.162882782443E-01  3.261414834010E-01
C40 -4.907349105359E-01  3.162882782443E-01 -3.261414834010E-01
C41 -4.902608249682E-01 -4.145413727037E-01  2.404471534941E-01
C42  4.902608249682E-01  4.145413727037E-01 -2.404471534941E-01
C43  4.545880842662E-01 -3.008313633489E-01  1.667862218605E-01
C44 -4.545880842662E-01  3.008313633489E-01 -1.667862218605E-01
C45  4.763451181123E-01 -3.971282181259E-01  8.305836063387E-02
C46 -4.763451181123E-01  3.971282181259E-01 -8.305836063387E-02
C47  4.221014405778E-01 -2.825352663655E-01  8.585437290432E-03
C48 -4.221014405778E-01  2.825352663655E-01 -8.585437290432E-03
C49 -4.441988817920E-01  3.788634617560E-01  7.413406173905E-02
C50  4.441988817920E-01 -3.788634617560E-01 -7.413406173905E-02
C51 -3.897341739809E-01  2.643446310592E-01  1.496873184169E-01
C52  3.897341739809E-01 -2.643446310592E-01 -1.496873184169E-01
C53 -4.105115214070E-01  3.618245378793E-01  2.316758920163E-01
C54  4.105115214070E-01 -3.618245378793E-01 -2.316758920163E-01
C55 -3.526542808137E-01  2.483709144733E-01  3.092547244392E-01
C56  3.526542808137E-01 -2.483709144733E-01 -3.092547244392E-01
C57 -3.736954645845E-01  3.482147249958E-01  3.892390794921E-01
C58  3.736954645845E-01 -3.482147249958E-01 -3.892390794921E-01
H59 -4.676830825615E-01 -3.528522723737E-01  4.632037062649E-01
H60  4.676830825615E-01  3.528522723737E-01 -4.632037062649E-01
H61  4.304336093025E-01 -1.462847774689E-01  3.330835592179E-01
H62 -4.304336093025E-01  1.462847774689E-01 -3.330835592179E-01
H63  3.934735244989E-01 -1.310325777873E-01  1.735081179674E-01
H64 -3.934735244989E-01  1.310325777873E-01 -1.735081179674E-01
H65  3.610503098743E-01 -1.127019079882E-01  1.535883500588E-02
H66 -3.610503098743E-01  1.127019079882E-01 -1.535883500588E-02
H67 -3.288480431472E-01  9.438450485974E-02  1.429248423435E-01
H68  3.288480431472E-01 -9.438450485974E-02 -1.429248423435E-01
H69 -2.900502258278E-01  7.959886162504E-02  3.029215222953E-01
H70  2.900502258278E-01 -7.959886162504E-02 -3.029215222953E-01
H71 -3.284505868449E-01  2.601239290269E-01  4.484528116221E-01
H72  3.284505868449E-01 -2.601239290269E-01 -4.484528116221E-01


#===END

data_OPT_STEP_38

_symmetry_space_group_name_H-M 'P 1'
_cell_length_a      7.98843028
_cell_length_b      6.08434633
_cell_length_c     16.10383123
_cell_angle_alpha  101.705024
_cell_angle_beta  112.996326
_cell_angle_gamma   85.806672

loop_
_atom_site_label
_atom_site_fract_x
_atom_site_fract_y
_atom_site_fract_z
C1  1.242641615424E-01  4.159180793982E-02  4.080612083846E-01
C2 -1.242641615424E-01 -4.159180793982E-02 -4.080612083846E-01
C3 -2.427279328399E-02 -2.672823233889E-01  2.803302368900E-01
C4  2.427279328399E-02  2.672823233889E-01 -2.803302368900E-01
C5  3.560444198250E-02 -1.760951714819E-01  3.726794912544E-01
C6 -3.560444198250E-02  1.760951714819E-01 -3.726794912544E-01
C7  1.499414260215E-01  1.613666146387E-01  3.499482500864E-01
C8 -1.499414260215E-01 -1.613666146387E-01 -3.499482500864E-01
C9  9.128939000782E-02  7.120259040487E-02  2.523323754159E-01
C10 -9.128939000782E-02 -7.120259040487E-02 -2.523323754159E-01
C11  1.192908919726E-01  1.877237052230E-01  1.921469593128E-01
C12 -1.192908919726E-01 -1.877237052230E-01 -1.921469593128E-01
C13  6.075858014815E-02  9.714891761151E-02  9.607736196946E-02
C14 -6.075858014815E-02 -9.714891761151E-02 -9.607736196946E-02
C15  8.845537660332E-02  2.134932138527E-01  3.477354765817E-02
C16 -8.845537660332E-02 -2.134932138527E-01 -3.477354765817E-02
C17 -2.975593609882E-02 -1.227130927610E-01  6.032188598055E-02
C18  2.975593609882E-02  1.227130927610E-01 -6.032188598055E-02
C19 -5.665409594331E-02 -2.396756585657E-01  1.226305140147E-01
C20  5.665409594331E-02  2.396756585657E-01 -1.226305140147E-01
C21  1.822515656314E-03 -1.489126435609E-01  2.166840816712E-01
C22 -1.822515656314E-03  1.489126435609E-01 -2.166840816712E-01
H23  1.708853363234E-01  1.123053684009E-01  4.828703455806E-01
H24 -1.708853363234E-01 -1.123053684009E-01 -4.828703455806E-01
H25 -9.282743192321E-02 -4.341210769692E-01  2.530588104554E-01
H26  9.282743192321E-02  4.341210769692E-01 -2.530588104554E-01
H27  1.497451211881E-02 -2.697330029035E-01  4.205828765275E-01
H28 -1.497451211881E-02  2.697330029035E-01 -4.205828765275E-01
H29  2.154069522243E-01  3.302996508919E-01  3.763379009552E-01
H30 -2.154069522243E-01 -3.302996508919E-01 -3.763379009552E-01
H31  1.891168685241E-01  3.541052274458E-01  2.193892092716E-01
H32 -1.891168685241E-01 -3.541052274458E-01 -2.193892092716E-01
H33  1.575311674175E-01  3.803613054406E-01  6.192617895743E-02
H34 -1.575311674175E-01 -3.803613054406E-01 -6.192617895743E-02
H35 -1.253478685064E-01 -4.067340930235E-01  9.543867785029E-02
H36  1.253478685064E-01  4.067340930235E-01 -9.543867785029E-02
C37 -4.529263490808E-01 -4.308146151914E-01  3.978002955863E-01
C38  4.529263490808E-01  4.308146151914E-01 -3.978002955863E-01
C39  4.907685987974E-01 -3.161452823835E-01  3.261736194792E-01
C40 -4.907685987974E-01  3.161452823835E-01 -3.261736194792E-01
C41 -4.902568204558E-01 -4.144529254003E-01  2.404690269018E-01
C42  4.902568204558E-01  4.144529254003E-01 -2.404690269018E-01
C43  4.545547756549E-01 -3.007751246755E-01  1.667916580422E-01
C44 -4.545547756549E-01  3.007751246755E-01 -1.667916580422E-01
C45  4.762167124824E-01 -3.971655938684E-01  8.303957951645E-02
C46 -4.762167124824E-01  3.971655938684E-01 -8.303957951645E-02
C47  4.220711834681E-01 -2.825253616237E-01  8.573239553773E-03
C48 -4.220711834681E-01  2.825253616237E-01 -8.573239553773E-03
C49 -4.442407438308E-01  3.788509106755E-01  7.413824113913E-02
C50  4.442407438308E-01 -3.788509106755E-01 -7.413824113913E-02
C51 -3.896874788030E-01  2.643865186021E-01  1.497209706079E-01
C52  3.896874788030E-01 -2.643865186021E-01 -1.497209706079E-01
C53 -4.105253148250E-01  3.618761536614E-01  2.317026823401E-01
C54  4.105253148250E-01 -3.618761536614E-01 -2.317026823401E-01
C55 -3.527120302828E-01  2.484236372048E-01  3.092875194556E-01
C56  3.527120302828E-01 -2.484236372048E-01 -3.092875194556E-01
C57 -3.736366225504E-01  3.483592652917E-01  3.892919458032E-01
C58  3.736366225504E-01 -3.483592652917E-01 -3.892919458032E-01
H59 -4.676741371857E-01 -3.526786685208E-01  4.632488339574E-01
H60  4.676741371857E-01  3.526786685208E-01 -4.632488339574E-01
H61  4.303806120385E-01 -1.461675492690E-01  3.330943580340E-01
H62 -4.303806120385E-01  1.461675492690E-01 -3.330943580340E-01
H63  3.934602000242E-01 -1.309479454786E-01  1.735096323472E-01
H64 -3.934602000242E-01  1.309479454786E-01 -1.735096323472E-01
H65  3.610454214089E-01 -1.126603764163E-01  1.534635300260E-02
H66 -3.610454214089E-01  1.126603764163E-01 -1.534635300260E-02
H67 -3.287146252193E-01  9.445736171001E-02  1.429786771304E-01
H68  3.287146252193E-01 -9.445736171001E-02 -1.429786771304E-01
H69 -2.902033465242E-01  7.957925900007E-02  3.029421347955E-01
H70  2.902033465242E-01 -7.957925900007E-02 -3.029421347955E-01
H71 -3.283914343828E-01  2.602762405688E-01  4.485142922022E-01
H72  3.283914343828E-01 -2.602762405688E-01 -4.485142922022E-01


#===END

data_OPT_STEP_39

_symmetry_space_group_name_H-M 'P 1'
_cell_length_a      7.98910035
_cell_length_b      6.08401430
_cell_length_c     16.10062696
_cell_angle_alpha  101.693571
_cell_angle_beta  112.983030
_cell_angle_gamma   85.810999

loop_
_atom_site_label
_atom_site_fract_x
_atom_site_fract_y
_atom_site_fract_z
C1  1.242695819715E-01  4.154464391978E-02  4.081329568329E-01
C2 -1.242695819715E-01 -4.154464391978E-02 -4.081329568329E-01
C3 -2.423902251603E-02 -2.673221997051E-01  2.804018592424E-01
C4  2.423902251603E-02  2.673221997051E-01 -2.804018592424E-01
C5  3.563449667580E-02 -1.761642194552E-01  3.727574987993E-01
C6 -3.563449667580E-02  1.761642194552E-01 -3.727574987993E-01
C7  1.500378611563E-01  1.612836341531E-01  3.500038703835E-01
C8 -1.500378611563E-01 -1.612836341531E-01 -3.500038703835E-01
C9  9.137886595481E-02  7.113162876960E-02  2.523748907604E-01
C10 -9.137886595481E-02 -7.113162876960E-02 -2.523748907604E-01
C11  1.193282740193E-01  1.876807291378E-01  1.921639425580E-01
C12 -1.193282740193E-01 -1.876807291378E-01 -1.921639425580E-01
C13  6.072190319098E-02  9.714963156950E-02  9.608516322114E-02
C14 -6.072190319098E-02 -9.714963156950E-02 -9.608516322114E-02
C15  8.844302368227E-02  2.134743583366E-01  3.475192521842E-02
C16 -8.844302368227E-02 -2.134743583366E-01 -3.475192521842E-02
C17 -2.974562156517E-02 -1.227055403849E-01  6.034701586197E-02
C18  2.974562156517E-02  1.227055403849E-01 -6.034701586197E-02
C19 -5.669228690671E-02 -2.396387514311E-01  1.226728623544E-01
C20  5.669228690671E-02  2.396387514311E-01 -1.226728623544E-01
C21  1.844613664468E-03 -1.489260049140E-01  2.167338139198E-01
C22 -1.844613664468E-03  1.489260049140E-01 -2.167338139198E-01
H23  1.708500402801E-01  1.122557896762E-01  4.829493467957E-01
H24 -1.708500402801E-01 -1.122557896762E-01 -4.829493467957E-01
H25 -9.309067092296E-02 -4.339633631337E-01  2.531167638658E-01
H26  9.309067092296E-02  4.339633631337E-01 -2.531167638658E-01
H27  1.483313300883E-02 -2.697351835028E-01  4.206579062764E-01
H28 -1.483313300883E-02  2.697351835028E-01 -4.206579062764E-01
H29  2.155799459324E-01  3.301810140965E-01  3.763810350700E-01
H30 -2.155799459324E-01 -3.301810140965E-01 -3.763810350700E-01
H31  1.890762503809E-01  3.541098819089E-01  2.193885124332E-01
H32 -1.890762503809E-01 -3.541098819089E-01 -2.193885124332E-01
H33  1.576198492475E-01  3.802558305330E-01  6.189636824451E-02
H34 -1.576198492475E-01 -3.802558305330E-01 -6.189636824451E-02
H35 -1.253335942301E-01 -4.067203109296E-01  9.549386928833E-02
H36  1.253335942301E-01  4.067203109296E-01 -9.549386928833E-02
C37 -4.528597400736E-01 -4.304827112472E-01  3.978925538672E-01
C38  4.528597400736E-01  4.304827112472E-01 -3.978925538672E-01
C39  4.909078107816E-01 -3.158013246767E-01  3.262486616879E-01
C40 -4.909078107816E-01  3.158013246767E-01 -3.262486616879E-01
C41 -4.902577712825E-01 -4.142783329368E-01  2.405111317534E-01
C42  4.902577712825E-01  4.142783329368E-01 -2.405111317534E-01
C43  4.545513804130E-01 -3.006366603648E-01  1.668029050279E-01
C44 -4.545513804130E-01  3.006366603648E-01 -1.668029050279E-01
C45  4.760504004697E-01 -3.971992286842E-01  8.301259660672E-02
C46 -4.760504004697E-01  3.971992286842E-01 -8.301259660672E-02
C47  4.220406475714E-01 -2.825169948262E-01  8.538666635003E-03
C48 -4.220406475714E-01  2.825169948262E-01 -8.538666635003E-03
C49 -4.443413063063E-01  3.788323056385E-01  7.415438237700E-02
C50  4.443413063063E-01 -3.788323056385E-01 -7.415438237700E-02
C51 -3.897392498643E-01  2.644367876577E-01  1.497802019802E-01
C52  3.897392498643E-01 -2.644367876577E-01 -1.497802019802E-01
C53 -4.105027685602E-01  3.620280522346E-01  2.317743278024E-01
C54  4.105027685602E-01 -3.620280522346E-01 -2.317743278024E-01
C55 -3.525116898017E-01  2.487224953573E-01  3.094256817428E-01
C56  3.525116898017E-01 -2.487224953573E-01 -3.094256817428E-01
C57 -3.734662648825E-01  3.487178787991E-01  3.894262969242E-01
C58  3.734662648825E-01 -3.487178787991E-01 -3.894262969242E-01
H59 -4.676645333084E-01 -3.523271634844E-01  4.633421876959E-01
H60  4.676645333084E-01  3.523271634844E-01 -4.633421876959E-01
H61  4.307029943280E-01 -1.457193399481E-01  3.331798648780E-01
H62 -4.307029943280E-01  1.457193399481E-01 -3.331798648780E-01
H63  3.934886994600E-01 -1.307828198046E-01  1.735006535981E-01
H64 -3.934886994600E-01  1.307828198046E-01 -1.735006535981E-01
H65  3.607910808591E-01 -1.127690701059E-01  1.524934468482E-02
H66 -3.607910808591E-01  1.127690701059E-01 -1.524934468482E-02
H67 -3.286191535825E-01  9.457699472422E-02  1.430854576706E-01
H68  3.286191535825E-01 -9.457699472422E-02 -1.430854576706E-01
H69 -2.898615029648E-01  7.994517006460E-02  3.031268191308E-01
H70  2.898615029648E-01 -7.994517006460E-02 -3.031268191308E-01
H71 -3.282702403630E-01  2.606365037529E-01  4.486649963476E-01
H72  3.282702403630E-01 -2.606365037529E-01 -4.486649963476E-01


#===END

data_OPT_STEP_40

_symmetry_space_group_name_H-M 'P 1'
_cell_length_a      7.99008893
_cell_length_b      6.08069306
_cell_length_c     16.09543346
_cell_angle_alpha  101.678596
_cell_angle_beta  112.977057
_cell_angle_gamma   85.805165

loop_
_atom_site_label
_atom_site_fract_x
_atom_site_fract_y
_atom_site_fract_z
C1  1.241962429491E-01  4.111319813251E-02  4.082403754313E-01
C2 -1.241962429491E-01 -4.111319813251E-02 -4.082403754313E-01
C3 -2.429817993208E-02 -2.677785765698E-01  2.804473464615E-01
C4  2.429817993208E-02  2.677785765698E-01 -2.804473464615E-01
C5  3.565775507242E-02 -1.767616613305E-01  3.728353163513E-01
C6 -3.565775507242E-02  1.767616613305E-01 -3.728353163513E-01
C7  1.501343733315E-01  1.608988460223E-01  3.501142182086E-01
C8 -1.501343733315E-01 -1.608988460223E-01 -3.501142182086E-01
C9  9.156459707405E-02  7.074169433532E-02  2.524543804271E-01
C10 -9.156459707405E-02 -7.074169433532E-02 -2.524543804271E-01
C11  1.195730169939E-01  1.873710047672E-01  1.922379489595E-01
C12 -1.195730169939E-01 -1.873710047672E-01 -1.922379489595E-01
C13  6.076814218879E-02  9.704233538326E-02  9.612469246014E-02
C14 -6.076814218879E-02 -9.704233538326E-02 -9.612469246014E-02
C15  8.853763440020E-02  2.134672514784E-01  3.477803301918E-02
C16 -8.853763440020E-02 -2.134672514784E-01 -3.477803301918E-02
C17 -2.982817690391E-02 -1.227856464352E-01  6.035089886087E-02
C18  2.982817690391E-02  1.227856464352E-01 -6.035089886087E-02
C19 -5.678214569076E-02 -2.398603183728E-01  1.226827282838E-01
C20  5.678214569076E-02  2.398603183728E-01 -1.226827282838E-01
C21  1.820133147697E-03 -1.492516264407E-01  2.167748256483E-01
C22 -1.820133147697E-03  1.492516264407E-01 -2.167748256483E-01
H23  1.707185369978E-01  1.117809519253E-01  4.830808019185E-01
H24 -1.707185369978E-01 -1.117809519253E-01 -4.830808019185E-01
H25 -9.327722413675E-02 -4.343954162943E-01  2.531311185033E-01
H26  9.327722413675E-02  4.343954162943E-01 -2.531311185033E-01
H27  1.477645495835E-02 -2.704398014924E-01  4.207240175832E-01
H28 -1.477645495835E-02  2.704398014924E-01 -4.207240175832E-01
H29  2.156877566790E-01  3.298885921989E-01  3.764980239813E-01
H30 -2.156877566790E-01 -3.298885921989E-01 -3.764980239813E-01
H31  1.894157228913E-01  3.537828757789E-01  2.194828882425E-01
H32 -1.894157228913E-01 -3.537828757789E-01 -2.194828882425E-01
H33  1.578701977030E-01  3.801807551688E-01  6.194550210178E-02
H34 -1.578701977030E-01 -3.801807551688E-01 -6.194550210178E-02
H35 -1.253944970370E-01 -4.070165308377E-01  9.548405190010E-02
H36  1.253944970370E-01  4.070165308377E-01 -9.548405190010E-02
C37 -4.530897993404E-01 -4.298985459527E-01  3.980114926131E-01
C38  4.530897993404E-01  4.298985459527E-01 -3.980114926131E-01
C39  4.906779459951E-01 -3.152472012054E-01  3.262982533617E-01
C40 -4.906779459951E-01  3.152472012054E-01 -3.262982533617E-01
C41 -4.901947333806E-01 -4.137906424768E-01  2.406042679299E-01
C42  4.901947333806E-01  4.137906424768E-01 -2.406042679299E-01
C43  4.546520954625E-01 -3.001666134455E-01  1.668319425079E-01
C44 -4.546520954625E-01  3.001666134455E-01 -1.668319425079E-01
C45  4.760210563918E-01 -3.970220665330E-01  8.300860321747E-02
C46 -4.760210563918E-01  3.970220665330E-01 -8.300860321747E-02
C47  4.219831610173E-01 -2.823894039612E-01  8.461078559145E-03
C48 -4.219831610173E-01  2.823894039612E-01 -8.461078559145E-03
C49 -4.442025455434E-01  3.789412841753E-01  7.425160430431E-02
C50  4.442025455434E-01 -3.789412841753E-01 -7.425160430431E-02
C51 -3.893982593405E-01  2.646871028662E-01  1.499845946101E-01
C52  3.893982593405E-01 -2.646871028662E-01 -1.499845946101E-01
C53 -4.103034598160E-01  3.624051084916E-01  2.319591468687E-01
C54  4.103034598160E-01 -3.624051084916E-01 -2.319591468687E-01
C55 -3.525838663829E-01  2.490304142839E-01  3.096262479531E-01
C56  3.525838663829E-01 -2.490304142839E-01 -3.096262479531E-01
C57 -3.735330476887E-01  3.492251431329E-01  3.896335135077E-01
C58  3.735330476887E-01 -3.492251431329E-01 -3.896335135077E-01
H59 -4.678070498613E-01 -3.515806979845E-01  4.634788466822E-01
H60  4.678070498613E-01  3.515806979845E-01 -4.634788466822E-01
H61  4.302133529603E-01 -1.451826398337E-01  3.331384553190E-01
H62 -4.302133529603E-01  1.451826398337E-01 -3.331384553190E-01
H63  3.935730182538E-01 -1.302100920724E-01  1.734707733306E-01
H64 -3.935730182538E-01  1.302100920724E-01 -1.734707733306E-01
H65  3.608370065882E-01 -1.124725082580E-01  1.513666521180E-02
H66 -3.608370065882E-01  1.124725082580E-01 -1.513666521180E-02
H67 -3.278698805445E-01  9.494188512847E-02  1.434132168742E-01
H68  3.278698805445E-01 -9.494188512847E-02 -1.434132168742E-01
H69 -2.901771469980E-01  7.998970733779E-02  3.033329455657E-01
H70  2.901771469980E-01 -7.998970733779E-02 -3.033329455657E-01
H71 -3.282646688328E-01  2.612174803226E-01  4.489371769465E-01
H72  3.282646688328E-01 -2.612174803226E-01 -4.489371769465E-01


#===END

data_OPT_STEP_41

_symmetry_space_group_name_H-M 'P 1'
_cell_length_a      7.99558837
_cell_length_b      6.07683638
_cell_length_c     16.09199494
_cell_angle_alpha  101.652832
_cell_angle_beta  112.965762
_cell_angle_gamma   85.823652

loop_
_atom_site_label
_atom_site_fract_x
_atom_site_fract_y
_atom_site_fract_z
C1  1.239944623856E-01  4.117352588451E-02  4.083108465580E-01
C2 -1.239944623856E-01 -4.117352588451E-02 -4.083108465580E-01
C3 -2.448484687074E-02 -2.678204980026E-01  2.805331359224E-01
C4  2.448484687074E-02  2.678204980026E-01 -2.805331359224E-01
C5  3.543651102370E-02 -1.767721117514E-01  3.729257622554E-01
C6 -3.543651102370E-02  1.767721117514E-01 -3.729257622554E-01
C7  1.498628801355E-01  1.610940636852E-01  3.501574506479E-01
C8 -1.498628801355E-01 -1.610940636852E-01 -3.501574506479E-01
C9  9.134749896069E-02  7.088909952356E-02  2.524862608968E-01
C10 -9.134749896069E-02 -7.088909952356E-02 -2.524862608968E-01
C11  1.193544321592E-01  1.875921768442E-01  1.922410533216E-01
C12 -1.193544321592E-01 -1.875921768442E-01 -1.922410533216E-01
C13  6.074808862669E-02  9.709632033309E-02  9.612309883177E-02
C14 -6.074808862669E-02 -9.709632033309E-02 -9.612309883177E-02
C15  8.855400170220E-02  2.135582161620E-01  3.474459374266E-02
C16 -8.855400170220E-02 -2.135582161620E-01 -3.474459374266E-02
C17 -2.992679948586E-02 -1.227857633948E-01  6.038090719147E-02
C18  2.992679948586E-02  1.227857633948E-01 -6.038090719147E-02
C19 -5.715789392989E-02 -2.397041906548E-01  1.227278694141E-01
C20  5.715789392989E-02  2.397041906548E-01 -1.227278694141E-01
C21  1.602815807331E-03 -1.491977387862E-01  2.168301263616E-01
C22 -1.602815807331E-03  1.491977387862E-01 -2.168301263616E-01
H23  1.705406487322E-01  1.118310045244E-01  4.831575983886E-01
H24 -1.705406487322E-01 -1.118310045244E-01 -4.831575983886E-01
H25 -9.359010695715E-02 -4.344271473199E-01  2.532263978564E-01
H26  9.359010695715E-02  4.344271473199E-01 -2.532263978564E-01
H27  1.473332084527E-02 -2.706049192699E-01  4.208543691170E-01
H28 -1.473332084527E-02  2.706049192699E-01 -4.208543691170E-01
H29  2.154752681137E-01  3.301246177459E-01  3.765415430901E-01
H30 -2.154752681137E-01 -3.301246177459E-01 -3.765415430901E-01
H31  1.888951168475E-01  3.542917686582E-01  2.194566092855E-01
H32 -1.888951168475E-01 -3.542917686582E-01 -2.194566092855E-01
H33  1.577092412241E-01  3.804643281586E-01  6.187810463977E-02
H34 -1.577092412241E-01 -3.804643281586E-01 -6.187810463977E-02
H35 -1.260028537341E-01 -4.067820837414E-01  9.553969770029E-02
H36  1.260028537341E-01  4.067820837414E-01 -9.553969770029E-02
C37 -4.531506755344E-01 -4.297438954470E-01  3.980830126139E-01
C38  4.531506755344E-01  4.297438954470E-01 -3.980830126139E-01
C39  4.905657904938E-01 -3.151319165624E-01  3.263142031881E-01
C40 -4.905657904938E-01  3.151319165624E-01 -3.263142031881E-01
C41 -4.904457468817E-01 -4.138219193051E-01  2.405954361295E-01
C42  4.904457468817E-01  4.138219193051E-01 -2.405954361295E-01
C43  4.542560651759E-01 -3.002753117039E-01  1.667531509876E-01
C44 -4.542560651759E-01  3.002753117039E-01 -1.667531509876E-01
C45  4.756185769821E-01 -3.971896176371E-01  8.293024022790E-02
C46 -4.756185769821E-01  3.971896176371E-01 -8.293024022790E-02
C47  4.219425442025E-01 -2.823404243669E-01  8.406582687805E-03
C48 -4.219425442025E-01  2.823404243669E-01 -8.406582687805E-03
C49 -4.444700343523E-01  3.787757767048E-01  7.424861972891E-02
C50  4.444700343523E-01 -3.787757767048E-01 -7.424861972891E-02
C51 -3.897339621836E-01  2.644719844001E-01  1.500084888767E-01
C52  3.897339621836E-01 -2.644719844001E-01 -1.500084888767E-01
C53 -4.106022059735E-01  3.622741114358E-01  2.319898239529E-01
C54  4.106022059735E-01 -3.622741114358E-01 -2.319898239529E-01
C55 -3.528532999954E-01  2.489190606045E-01  3.097106727189E-01
C56  3.528532999954E-01 -2.489190606045E-01 -3.097106727189E-01
C57 -3.736588345547E-01  3.492667972276E-01  3.897414057857E-01
C58  3.736588345547E-01 -3.492667972276E-01 -3.897414057857E-01
H59 -4.677057810410E-01 -3.512585955589E-01  4.635706439876E-01
H60  4.677057810410E-01  3.512585955589E-01 -4.635706439876E-01
H61  4.302202720949E-01 -1.449475221298E-01  3.331353760526E-01
H62 -4.302202720949E-01  1.449475221298E-01 -3.331353760526E-01
H63  3.932305240149E-01 -1.302367601244E-01  1.733650511028E-01
H64 -3.932305240149E-01  1.302367601244E-01 -1.733650511028E-01
H65  3.606917336759E-01 -1.124252134116E-01  1.503022836082E-02
H66 -3.606917336759E-01  1.124252134116E-01 -1.503022836082E-02
H67 -3.281656211504E-01  9.469694121172E-02  1.434789958573E-01
H68  3.281656211504E-01 -9.469694121172E-02 -1.434789958573E-01
H69 -2.904271033490E-01  7.983405237642E-02  3.034606422861E-01
H70  2.904271033490E-01 -7.983405237642E-02 -3.034606422861E-01
H71 -3.283285933386E-01  2.612896539217E-01  4.490864759206E-01
H72  3.283285933386E-01 -2.612896539217E-01 -4.490864759206E-01


#===END

data_OPT_STEP_42

_symmetry_space_group_name_H-M 'P 1'
_cell_length_a      7.99306670
_cell_length_b      6.07492340
_cell_length_c     16.08633855
_cell_angle_alpha  101.639589
_cell_angle_beta  112.899905
_cell_angle_gamma   85.840940

loop_
_atom_site_label
_atom_site_fract_x
_atom_site_fract_y
_atom_site_fract_z
C1  1.240789153596E-01  4.084884989639E-02  4.083419427276E-01
C2 -1.240789153596E-01 -4.084884989639E-02 -4.083419427276E-01
C3 -2.431054135577E-02 -2.681984124079E-01  2.806287516759E-01
C4  2.431054135577E-02  2.681984124079E-01 -2.806287516759E-01
C5  3.545432773612E-02 -1.770814616945E-01  3.730009493153E-01
C6 -3.545432773612E-02  1.770814616945E-01 -3.730009493153E-01
C7  1.500556109264E-01  1.607691409350E-01  3.501652210271E-01
C8 -1.500556109264E-01 -1.607691409350E-01 -3.501652210271E-01
C9  9.150453262433E-02  7.063976933324E-02  2.525059233024E-01
C10 -9.150453262433E-02 -7.063976933324E-02 -2.525059233024E-01
C11  1.195127748648E-01  1.874238505268E-01  1.922288047568E-01
C12 -1.195127748648E-01 -1.874238505268E-01 -1.922288047568E-01
C13  6.086325435183E-02  9.699459375726E-02  9.612457945570E-02
C14 -6.086325435183E-02 -9.699459375726E-02 -9.612457945570E-02
C15  8.860892233976E-02  2.135580178726E-01  3.470434681244E-02
C16 -8.860892233976E-02 -2.135580178726E-01 -3.470434681244E-02
C17 -2.979228594188E-02 -1.229486403142E-01  6.041615810284E-02
C18  2.979228594188E-02  1.229486403142E-01 -6.041615810284E-02
C19 -5.687565488779E-02 -2.400434212010E-01  1.228114514005E-01
C20  5.687565488779E-02  2.400434212010E-01 -1.228114514005E-01
C21  1.841415220147E-03 -1.495418783548E-01  2.168975863763E-01
C22 -1.841415220147E-03  1.495418783548E-01 -2.168975863763E-01
H23  1.704445543087E-01  1.116001291014E-01  4.831690921605E-01
H24 -1.704445543087E-01 -1.116001291014E-01 -4.831690921605E-01
H25 -9.341837648075E-02 -4.348342575711E-01  2.533558152700E-01
H26  9.341837648075E-02  4.348342575711E-01 -2.533558152700E-01
H27  1.465273475613E-02 -2.708857441107E-01  4.209560269844E-01
H28 -1.465273475613E-02  2.708857441107E-01 -4.209560269844E-01
H29  2.157068754392E-01  3.297890885865E-01  3.765245651224E-01
H30 -2.157068754392E-01 -3.297890885865E-01 -3.765245651224E-01
H31  1.891129494790E-01  3.541165066181E-01  2.194092332603E-01
H32 -1.891129494790E-01 -3.541165066181E-01 -2.194092332603E-01
H33  1.578161308958E-01  3.804666866350E-01  6.180720794045E-02
H34 -1.578161308958E-01 -3.804666866350E-01 -6.180720794045E-02
H35 -1.255667029641E-01 -4.072515089575E-01  9.566786002328E-02
H36  1.255667029641E-01  4.072515089575E-01 -9.566786002328E-02
C37 -4.528623967580E-01 -4.292326639843E-01  3.982431450499E-01
C38  4.528623967580E-01  4.292326639843E-01 -3.982431450499E-01
C39  4.907340627147E-01 -3.147444891197E-01  3.264325211122E-01
C40 -4.907340627147E-01  3.147444891197E-01 -3.264325211122E-01
C41 -4.903937481818E-01 -4.135826277685E-01  2.406711391295E-01
C42  4.903937481818E-01  4.135826277685E-01 -2.406711391295E-01
C43  4.543715131775E-01 -3.000408783001E-01  1.668244838906E-01
C44 -4.543715131775E-01  3.000408783001E-01 -1.668244838906E-01
C45  4.757078770067E-01 -3.970581037421E-01  8.297041605668E-02
C46 -4.757078770067E-01  3.970581037421E-01 -8.297041605668E-02
C47  4.220608982165E-01 -2.822311783801E-01  8.433164190077E-03
C48 -4.220608982165E-01  2.822311783801E-01 -8.433164190077E-03
C49 -4.445131511580E-01  3.787920300921E-01  7.425901653752E-02
C50  4.445131511580E-01 -3.787920300921E-01 -7.425901653752E-02
C51 -3.896476589345E-01  2.645882627484E-01  1.500689039019E-01
C52  3.896476589345E-01 -2.645882627484E-01 -1.500689039019E-01
C53 -4.105816656005E-01  3.624632322649E-01  2.320571690233E-01
C54  4.105816656005E-01 -3.624632322649E-01 -2.320571690233E-01
C55 -3.525879620115E-01  2.492808342933E-01  3.098547625197E-01
C56  3.525879620115E-01 -2.492808342933E-01 -3.098547625197E-01
C57 -3.732994877377E-01  3.497853727102E-01  3.899133224843E-01
C58  3.732994877377E-01 -3.497853727102E-01 -3.899133224843E-01
H59 -4.676423086123E-01 -3.507526960656E-01  4.637111041722E-01
H60  4.676423086123E-01  3.507526960656E-01 -4.637111041722E-01
H61  4.304834643908E-01 -1.444726398349E-01  3.332663982635E-01
H62 -4.304834643908E-01  1.444726398349E-01 -3.332663982635E-01
H63  3.935448823778E-01 -1.298577665986E-01  1.734747923618E-01
H64 -3.935448823778E-01  1.298577665986E-01 -1.734747923618E-01
H65  3.608117685169E-01 -1.122740163700E-01  1.506302861635E-02
H66 -3.608117685169E-01  1.122740163700E-01 -1.506302861635E-02
H67 -3.279688645294E-01  9.483868543048E-02  1.435555686261E-01
H68  3.279688645294E-01 -9.483868543048E-02 -1.435555686261E-01
H69 -2.900544228997E-01  8.022066566102E-02  3.036239075112E-01
H70  2.900544228997E-01 -8.022066566102E-02 -3.036239075112E-01
H71 -3.280860579010E-01  2.617804239951E-01  4.492540243225E-01
H72  3.280860579010E-01 -2.617804239951E-01 -4.492540243225E-01


#===END

data_OPT_STEP_43

_symmetry_space_group_name_H-M 'P 1'
_cell_length_a      7.99317333
_cell_length_b      6.07583661
_cell_length_c     16.08515493
_cell_angle_alpha  101.636174
_cell_angle_beta  112.898555
_cell_angle_gamma   85.838882

loop_
_atom_site_label
_atom_site_fract_x
_atom_site_fract_y
_atom_site_fract_z
C1  1.240353232738E-01  4.095109814309E-02  4.083689569238E-01
C2 -1.240353232738E-01 -4.095109814309E-02 -4.083689569238E-01
C3 -2.432145040503E-02 -2.680718482382E-01  2.806653240768E-01
C4  2.432145040503E-02  2.680718482382E-01 -2.806653240768E-01
C5  3.546385361107E-02 -1.769815309828E-01  3.730405732920E-01
C6 -3.546385361107E-02  1.769815309828E-01 -3.730405732920E-01
C7  1.499588440605E-01  1.608757539140E-01  3.501772958334E-01
C8 -1.499588440605E-01 -1.608757539140E-01 -3.501772958334E-01
C9  9.139616461591E-02  7.076126860884E-02  2.525145557908E-01
C10 -9.139616461591E-02 -7.076126860884E-02 -2.525145557908E-01
C11  1.194429811614E-01  1.874737551828E-01  1.922266165166E-01
C12 -1.194429811614E-01 -1.874737551828E-01 -1.922266165166E-01
C13  6.077809051330E-02  9.704882199439E-02  9.611936740476E-02
C14 -6.077809051330E-02 -9.704882199439E-02 -9.611936740476E-02
C15  8.856122591222E-02  2.135397121927E-01  3.469085943661E-02
C16 -8.856122591222E-02 -2.135397121927E-01 -3.469085943661E-02
C17 -2.981668008703E-02 -1.228779605930E-01  6.042889079542E-02
C18  2.981668008703E-02  1.228779605930E-01 -6.042889079542E-02
C19 -5.692143051487E-02 -2.399216872619E-01  1.228315818496E-01
C20  5.692143051487E-02  2.399216872619E-01 -1.228315818496E-01
C21  1.747795844803E-03 -1.493855301877E-01  2.169182882028E-01
C22 -1.747795844803E-03  1.493855301877E-01 -2.169182882028E-01
H23  1.705848035986E-01  1.115712637286E-01  4.832092115562E-01
H24 -1.705848035986E-01 -1.115712637286E-01 -4.832092115562E-01
H25 -9.344541104504E-02 -4.346607657444E-01  2.533963357681E-01
H26  9.344541104504E-02  4.346607657444E-01 -2.533963357681E-01
H27  1.462266319968E-02 -2.707447023053E-01  4.210013173711E-01
H28 -1.462266319968E-02  2.707447023053E-01 -4.210013173711E-01
H29  2.156135290607E-01  3.298606812810E-01  3.765325982330E-01
H30 -2.156135290607E-01 -3.298606812810E-01 -3.765325982330E-01
H31  1.891002106533E-01  3.540955911917E-01  2.193987033183E-01
H32 -1.891002106533E-01 -3.540955911917E-01 -2.193987033183E-01
H33  1.577747486782E-01  3.804095334468E-01  6.178492851404E-02
H34 -1.577747486782E-01 -3.804095334468E-01 -6.178492851404E-02
H35 -1.255302099173E-01 -4.071457266893E-01  9.570215683574E-02
H36  1.255302099173E-01  4.071457266893E-01 -9.570215683574E-02
C37 -4.527862212505E-01 -4.291857544721E-01  3.982889030375E-01
C38  4.527862212505E-01  4.291857544721E-01 -3.982889030375E-01
C39  4.908198206248E-01 -3.147179477540E-01  3.264667347526E-01
C40 -4.908198206248E-01  3.147179477540E-01 -3.264667347526E-01
C41 -4.903519500718E-01 -4.135752836133E-01  2.406952437967E-01
C42  4.903519500718E-01  4.135752836133E-01 -2.406952437967E-01
C43  4.544504771804E-01 -3.000264874567E-01  1.668473279966E-01
C44 -4.544504771804E-01  3.000264874567E-01 -1.668473279966E-01
C45  4.757731020505E-01 -3.970376791885E-01  8.298719959479E-02
C46 -4.757731020505E-01  3.970376791885E-01 -8.298719959479E-02
C47  4.220065994849E-01 -2.822875500952E-01  8.419728720725E-03
C48 -4.220065994849E-01  2.822875500952E-01 -8.419728720725E-03
C49 -4.444421822399E-01  3.788432658976E-01  7.428154342044E-02
C50  4.444421822399E-01 -3.788432658976E-01 -7.428154342044E-02
C51 -3.896010151509E-01  2.646455741340E-01  1.500963257728E-01
C52  3.896010151509E-01 -2.646455741340E-01 -1.500963257728E-01
C53 -4.105361908215E-01  3.625016622702E-01  2.320897088554E-01
C54  4.105361908215E-01 -3.625016622702E-01 -2.320897088554E-01
C55 -3.525475411653E-01  2.493469927850E-01  3.098971854101E-01
C56  3.525475411653E-01 -2.493469927850E-01 -3.098971854101E-01
C57 -3.732627239867E-01  3.498355748982E-01  3.899587816881E-01
C58  3.732627239867E-01 -3.498355748982E-01 -3.899587816881E-01
H59 -4.675399948560E-01 -3.506600786365E-01  4.637668707753E-01
H60  4.675399948560E-01  3.506600786365E-01 -4.637668707753E-01
H61  4.304436975987E-01 -1.445319271626E-01  3.332709269357E-01
H62 -4.304436975987E-01  1.445319271626E-01 -3.332709269357E-01
H63  3.934450876679E-01 -1.299570501150E-01  1.734623464742E-01
H64 -3.934450876679E-01  1.299570501150E-01 -1.734623464742E-01
H65  3.607315156801E-01 -1.123681608266E-01  1.504312297460E-02
H66 -3.607315156801E-01  1.123681608266E-01 -1.504312297460E-02
H67 -3.281167602094E-01  9.480258302738E-02  1.435514710018E-01
H68  3.281167602094E-01 -9.480258302738E-02 -1.435514710018E-01
H69 -2.901237280577E-01  8.024385613994E-02  3.036522609726E-01
H70  2.901237280577E-01 -8.024385613994E-02 -3.036522609726E-01
H71 -3.280647324187E-01  2.618290819060E-01  4.493042463209E-01
H72  3.280647324187E-01 -2.618290819060E-01 -4.493042463209E-01


#===END

data_OPT_STEP_44

_symmetry_space_group_name_H-M 'P 1'
_cell_length_a      7.99402373
_cell_length_b      6.07547185
_cell_length_c     16.08436608
_cell_angle_alpha  101.636992
_cell_angle_beta  112.887697
_cell_angle_gamma   85.834133

loop_
_atom_site_label
_atom_site_fract_x
_atom_site_fract_y
_atom_site_fract_z
C1  1.240837346849E-01  4.090651965757E-02  4.083830575644E-01
C2 -1.240837346849E-01 -4.090651965757E-02 -4.083830575644E-01
C3 -2.434924712109E-02 -2.680537266207E-01  2.806837548901E-01
C4  2.434924712109E-02  2.680537266207E-01 -2.806837548901E-01
C5  3.551337742793E-02 -1.770235963702E-01  3.730623984623E-01
C6 -3.551337742793E-02  1.770235963702E-01 -3.730623984623E-01
C7  1.500204866377E-01  1.608254128777E-01  3.501848046386E-01
C8 -1.500204866377E-01 -1.608254128777E-01 -3.501848046386E-01
C9  9.145079131828E-02  7.072289897222E-02  2.525229608827E-01
C10 -9.145079131828E-02 -7.072289897222E-02 -2.525229608827E-01
C11  1.194558211732E-01  1.874602561466E-01  1.922255655518E-01
C12 -1.194558211732E-01 -1.874602561466E-01 -1.922255655518E-01
C13  6.077860705781E-02  9.704699551990E-02  9.611901906168E-02
C14 -6.077860705781E-02 -9.704699551990E-02 -9.611901906168E-02
C15  8.855088709873E-02  2.135424699312E-01  3.468302676602E-02
C16 -8.855088709872E-02 -2.135424699312E-01 -3.468302676602E-02
C17 -2.983278425802E-02 -1.228673457287E-01  6.043574216464E-02
C18  2.983278425802E-02  1.228673457287E-01 -6.043574216464E-02
C19 -5.689809740398E-02 -2.399362610559E-01  1.228471545721E-01
C20  5.689809740398E-02  2.399362610559E-01 -1.228471545721E-01
C21  1.755396483275E-03 -1.493924904023E-01  2.169329878545E-01
C22 -1.755396483275E-03  1.493924904023E-01 -2.169329878545E-01
H23  1.706162238271E-01  1.115358814193E-01  4.832229660722E-01
H24 -1.706162238271E-01 -1.115358814193E-01 -4.832229660722E-01
H25 -9.336846663032E-02 -4.347048968425E-01  2.534269774543E-01
H26  9.336846663032E-02  4.347048968425E-01 -2.534269774543E-01
H27  1.470100996485E-02 -2.708073529452E-01  4.210296881791E-01
H28 -1.470100996485E-02  2.708073529452E-01 -4.210296881791E-01
H29  2.156356005612E-01  3.298367829790E-01  3.765381004392E-01
H30 -2.156356005612E-01 -3.298367829790E-01 -3.765381004392E-01
H31  1.891400941177E-01  3.540584000798E-01  2.193905554207E-01
H32 -1.891400941177E-01 -3.540584000798E-01 -2.193905554207E-01
H33  1.577668500454E-01  3.804064759102E-01  6.176963909169E-02
H34 -1.577668500454E-01 -3.804064759102E-01 -6.176963909169E-02
H35 -1.255724386268E-01 -4.071146676939E-01  9.571854079940E-02
H36  1.255724386268E-01  4.071146676939E-01 -9.571854079940E-02
C37 -4.528438352499E-01 -4.291172252288E-01  3.983045560982E-01
C38  4.528438352499E-01  4.291172252288E-01 -3.983045560982E-01
C39  4.909083271700E-01 -3.145638660026E-01  3.265035815972E-01
C40 -4.909083271700E-01  3.145638660026E-01 -3.265035815972E-01
C41 -4.902252258718E-01 -4.134360638574E-01  2.407333208187E-01
C42  4.902252258718E-01  4.134360638574E-01 -2.407333208187E-01
C43  4.544610974961E-01 -2.999579428432E-01  1.668598552334E-01
C44 -4.544610974961E-01  2.999579428432E-01 -1.668598552334E-01
C45  4.757881852663E-01 -3.969936874175E-01  8.299528993284E-02
C46 -4.757881852663E-01  3.969936874175E-01 -8.299528993284E-02
C47  4.219208329117E-01 -2.823039771123E-01  8.403984802450E-03
C48 -4.219208329117E-01  2.823039771123E-01 -8.403984802450E-03
C49 -4.443573654318E-01  3.788958646831E-01  7.430331142913E-02
C50  4.443573654318E-01 -3.788958646831E-01 -7.430331142913E-02
C51 -3.895999206882E-01  2.646654341393E-01  1.501068466384E-01
C52  3.895999206882E-01 -2.646654341393E-01 -1.501068466384E-01
C53 -4.104107237091E-01  3.626045503533E-01  2.321257618784E-01
C54  4.104107237091E-01 -3.626045503533E-01 -2.321257618784E-01
C55 -3.525498839405E-01  2.493870942850E-01  3.099101373877E-01
C56  3.525498839405E-01 -2.493870942850E-01 -3.099101373877E-01
C57 -3.734016863395E-01  3.498260131599E-01  3.899580342543E-01
C58  3.734016863395E-01 -3.498260131599E-01 -3.899580342543E-01
H59 -4.676057070934E-01 -3.505796608217E-01  4.637844331832E-01
H60  4.676057070934E-01  3.505796608217E-01 -4.637844331832E-01
H61  4.305744787303E-01 -1.443395003824E-01  3.333177138057E-01
H62 -4.305744787303E-01  1.443395003824E-01 -3.333177138057E-01
H63  3.933364662072E-01 -1.299307165094E-01  1.734529301067E-01
H64 -3.933364662072E-01  1.299307165094E-01 -1.734529301067E-01
H65  3.606581632009E-01 -1.123588767667E-01  1.502834689438E-02
H66 -3.606581632009E-01  1.123588767667E-01 -1.502834689438E-02
H67 -3.281704806391E-01  9.477263825216E-02  1.435511096839E-01
H68  3.281704806391E-01 -9.477263825216E-02 -1.435511096839E-01
H69 -2.900619364066E-01  8.030088168466E-02  3.036760415252E-01
H70  2.900619364066E-01 -8.030088168466E-02 -3.036760415252E-01
H71 -3.281882063828E-01  2.618231142843E-01  4.493067267528E-01
H72  3.281882063828E-01 -2.618231142843E-01 -4.493067267528E-01


#===END

data_OPT_STEP_45

_symmetry_space_group_name_H-M 'P 1'
_cell_length_a      7.99393002
_cell_length_b      6.07627828
_cell_length_c     16.08354240
_cell_angle_alpha  101.632448
_cell_angle_beta  112.890015
_cell_angle_gamma   85.836092

loop_
_atom_site_label
_atom_site_fract_x
_atom_site_fract_y
_atom_site_fract_z
C1  1.239783910909E-01  4.097999624897E-02  4.084100072319E-01
C2 -1.239783910909E-01 -4.097999624897E-02 -4.084100072319E-01
C3 -2.445485042895E-02 -2.679360749956E-01  2.807028680557E-01
C4  2.445485042895E-02  2.679360749956E-01 -2.807028680557E-01
C5  3.542161375726E-02 -1.769337902656E-01  3.730882054335E-01
C6 -3.542161375726E-02  1.769337902656E-01 -3.730882054335E-01
C7  1.499017062430E-01  1.608968421170E-01  3.502046292878E-01
C8 -1.499017062430E-01 -1.608968421170E-01 -3.502046292878E-01
C9  9.136724442934E-02  7.078436039057E-02  2.525372703339E-01
C10 -9.136724442934E-02 -7.078436039057E-02 -2.525372703339E-01
C11  1.193674024616E-01  1.875065961209E-01  1.922322335525E-01
C12 -1.193674024616E-01 -1.875065961209E-01 -1.922322335525E-01
C13  6.075285266735E-02  9.705345294979E-02  9.612041068723E-02
C14 -6.075285266735E-02 -9.705345294979E-02 -9.612041068723E-02
C15  8.853152960390E-02  2.135303711435E-01  3.467762557122E-02
C16 -8.853152960390E-02 -2.135303711435E-01 -3.467762557122E-02
C17 -2.985728688673E-02 -1.228276402447E-01  6.044402256729E-02
C18  2.985728688673E-02  1.228276402447E-01 -6.044402256729E-02
C19 -5.694883921249E-02 -2.398592871739E-01  1.228606149409E-01
C20  5.694883921249E-02  2.398592871739E-01 -1.228606149409E-01
C21  1.689338944197E-03 -1.493113554212E-01  2.169513691948E-01
C22 -1.689338944197E-03  1.493113554212E-01 -2.169513691948E-01
H23  1.705572848947E-01  1.115650154292E-01  4.832575658358E-01
H24 -1.705572848947E-01 -1.115650154292E-01 -4.832575658358E-01
H25 -9.343267861603E-02 -4.345904887409E-01  2.534482443562E-01
H26  9.343267861603E-02  4.345904887409E-01 -2.534482443562E-01
H27  1.463867467383E-02 -2.707423693541E-01  4.210581211732E-01
H28 -1.463867467383E-02  2.707423693541E-01 -4.210581211732E-01
H29  2.155023745476E-01  3.298996232191E-01  3.765550856644E-01
H30 -2.155023745476E-01 -3.298996232191E-01 -3.765550856644E-01
H31  1.890259336275E-01  3.541017130566E-01  2.193938910014E-01
H32 -1.890259336275E-01 -3.541017130566E-01 -2.193938910014E-01
H33  1.577412494140E-01  3.803717032900E-01  6.175935047273E-02
H34 -1.577412494140E-01 -3.803717032900E-01 -6.175935047273E-02
H35 -1.256463205092E-01 -4.069995116881E-01  9.573421322591E-02
H36  1.256463205092E-01  4.069995116881E-01 -9.573421322591E-02
C37 -4.529249683695E-01 -4.291599805607E-01  3.983152929989E-01
C38  4.529249683695E-01  4.291599805607E-01 -3.983152929989E-01
C39  4.907341595345E-01 -3.146814193287E-01  3.264867695125E-01
C40 -4.907341595345E-01  3.146814193287E-01 -3.264867695125E-01
C41 -4.903840651023E-01 -4.135382871032E-01  2.407175462103E-01
C42  4.903840651023E-01  4.135382871032E-01 -2.407175462103E-01
C43  4.544003796606E-01 -3.000163579382E-01  1.668510641287E-01
C44 -4.544003796606E-01  3.000163579382E-01 -1.668510641287E-01
C45  4.757791263939E-01 -3.970159181506E-01  8.299600927361E-02
C46 -4.757791263939E-01  3.970159181506E-01 -8.299600927361E-02
C47  4.219171494823E-01 -2.823364246919E-01  8.396668379368E-03
C48 -4.219171494823E-01  2.823364246919E-01 -8.396668379368E-03
C49 -4.443779732436E-01  3.788945559671E-01  7.430940482603E-02
C50  4.443779732436E-01 -3.788945559671E-01 -7.430940482603E-02
C51 -3.896364416006E-01  2.646683803384E-01  1.501156527362E-01
C52  3.896364416006E-01 -2.646683803384E-01 -1.501156527362E-01
C53 -4.105257883290E-01  3.625538676074E-01  2.321274287149E-01
C54  4.105257883290E-01 -3.625538676074E-01 -2.321274287149E-01
C55 -3.526434796468E-01  2.493735224127E-01  3.099240484254E-01
C56  3.526434796468E-01 -2.493735224127E-01 -3.099240484254E-01
C57 -3.734125196995E-01  3.498506335108E-01  3.899886142127E-01
C58  3.734125196995E-01 -3.498506335108E-01 -3.899886142127E-01
H59 -4.675848566045E-01 -3.505566955777E-01  4.638120904372E-01
H60  4.675848566045E-01  3.505566955777E-01 -4.638120904372E-01
H61  4.303816037792E-01 -1.444894892723E-01  3.332907442019E-01
H62 -4.303816037792E-01  1.444894892723E-01 -3.332907442019E-01
H63  3.934080088575E-01 -1.299469006966E-01  1.734646212404E-01
H64 -3.934080088575E-01  1.299469006966E-01 -1.734646212404E-01
H65  3.606591178765E-01 -1.124143788703E-01  1.501740452769E-02
H66 -3.606591178765E-01  1.124143788703E-01 -1.501740452769E-02
H67 -3.281444015347E-01  9.483320075883E-02  1.435778249168E-01
H68  3.281444015347E-01 -9.483320075883E-02 -1.435778249168E-01
H69 -2.901425870579E-01  8.031552433583E-02  3.036998244959E-01
H70  2.901425870579E-01 -8.031552433583E-02 -3.036998244959E-01
H71 -3.281813467248E-01  2.618652139605E-01  4.493466235917E-01
H72  3.281813467248E-01 -2.618652139605E-01 -4.493466235917E-01


#===END

data_OPT_STEP_46

_symmetry_space_group_name_H-M 'P 1'
_cell_length_a      7.99555330
_cell_length_b      6.07453882
_cell_length_c     16.08289865
_cell_angle_alpha  101.638888
_cell_angle_beta  112.868022
_cell_angle_gamma   85.846477

loop_
_atom_site_label
_atom_site_fract_x
_atom_site_fract_y
_atom_site_fract_z
C1  1.239583435514E-01  4.082771332397E-02  4.083945920322E-01
C2 -1.239583435514E-01 -4.082771332396E-02 -4.083945920322E-01
C3 -2.450137081123E-02 -2.681370300157E-01  2.806833277343E-01
C4  2.450137081123E-02  2.681370300157E-01 -2.806833277343E-01
C5  3.541995207571E-02 -1.771531651676E-01  3.730729407051E-01
C6 -3.541995207571E-02  1.771531651676E-01 -3.730729407051E-01
C7  1.497274874441E-01  1.609057099930E-01  3.501875610655E-01
C8 -1.497274874441E-01 -1.609057099930E-01 -3.501875610655E-01
C9  9.116867439495E-02  7.081853428140E-02  2.525184999935E-01
C10 -9.116867439495E-02 -7.081853428140E-02 -2.525184999935E-01
C11  1.192301754998E-01  1.875652190154E-01  1.922228676381E-01
C12 -1.192301754998E-01 -1.875652190154E-01 -1.922228676381E-01
C13  6.064010057226E-02  9.712052153314E-02  9.611186761291E-02
C14 -6.064010057226E-02 -9.712052153314E-02 -9.611186761291E-02
C15  8.849756289607E-02  2.136271252571E-01  3.468675026573E-02
C16 -8.849756289607E-02 -2.136271252571E-01 -3.468675026573E-02
C17 -2.992135470244E-02 -1.228656064630E-01  6.043302786804E-02
C18  2.992135470244E-02  1.228656064630E-01 -6.043302786804E-02
C19 -5.706681315618E-02 -2.399445358657E-01  1.228376150950E-01
C20  5.706681315618E-02  2.399445358657E-01 -1.228376150950E-01
C21  1.516948974733E-03 -1.493652076924E-01  2.169274307960E-01
C22 -1.516948974733E-03  1.493652076924E-01 -2.169274307960E-01
H23  1.705644828567E-01  1.114063398073E-01  4.832427171419E-01
H24 -1.705644828567E-01 -1.114063398073E-01 -4.832427171419E-01
H25 -9.362318457886E-02 -4.347545251461E-01  2.534140360928E-01
H26  9.362318457886E-02  4.347545251461E-01 -2.534140360928E-01
H27  1.473198269712E-02 -2.710169577888E-01  4.210570599482E-01
H28 -1.473198269712E-02  2.710169577888E-01 -4.210570599482E-01
H29  2.153242450046E-01  3.299510033489E-01  3.765478879648E-01
H30 -2.153242450046E-01 -3.299510033489E-01 -3.765478879648E-01
H31  1.888645468655E-01  3.542283155769E-01  2.193917674399E-01
H32 -1.888645468655E-01 -3.542283155769E-01 -2.193917674399E-01
H33  1.576879623341E-01  3.805363483197E-01  6.177494724693E-02
H34 -1.576879623341E-01 -3.805363483197E-01 -6.177494724693E-02
H35 -1.256255431252E-01 -4.072282763734E-01  9.571571399453E-02
H36  1.256255431252E-01  4.072282763734E-01 -9.571571399453E-02
C37 -4.529869635529E-01 -4.292007123329E-01  3.983230451217E-01
C38  4.529869635529E-01  4.292007123329E-01 -3.983230451217E-01
C39  4.905592455197E-01 -3.147874365678E-01  3.264828028545E-01
C40 -4.905592455197E-01  3.147874365678E-01 -3.264828028545E-01
C41 -4.904755586085E-01 -4.135981292223E-01  2.407158096707E-01
C42  4.904755586085E-01  4.135981292223E-01 -2.407158096707E-01
C43  4.543072013966E-01 -3.000610157490E-01  1.668576893672E-01
C44 -4.543072013966E-01  3.000610157490E-01 -1.668576893672E-01
C45  4.757666483376E-01 -3.970152499826E-01  8.300635687260E-02
C46 -4.757666483376E-01  3.970152499826E-01 -8.300635687260E-02
C47  4.220186637406E-01 -2.822536988755E-01  8.440215160167E-03
C48 -4.220186637406E-01  2.822536988755E-01 -8.440215160167E-03
C49 -4.444404955113E-01  3.788330640311E-01  7.428471667515E-02
C50  4.444404955113E-01 -3.788330640311E-01 -7.428471667515E-02
C51 -3.896684612327E-01  2.645953450577E-01  1.500818001308E-01
C52  3.896684612327E-01 -2.645953450577E-01 -1.500818001308E-01
C53 -4.106103045040E-01  3.624724428611E-01  2.321012187732E-01
C54  4.106103045040E-01 -3.624724428611E-01 -2.321012187732E-01
C55 -3.527125726725E-01  2.492758037527E-01  3.098887667452E-01
C56  3.527125726725E-01 -2.492758037527E-01 -3.098887667452E-01
C57 -3.734538317623E-01  3.497918860911E-01  3.899746370994E-01
C58  3.734538317623E-01 -3.497918860911E-01 -3.899746370994E-01
H59 -4.675894521162E-01 -3.505202078285E-01  4.638354721362E-01
H60  4.675894521162E-01  3.505202078285E-01 -4.638354721362E-01
H61  4.301764826811E-01 -1.445808464423E-01  3.333018471346E-01
H62 -4.301764826811E-01  1.445808464423E-01 -3.333018471346E-01
H63  3.932723082504E-01 -1.299891095991E-01  1.734860327201E-01
H64 -3.932723082504E-01  1.299891095991E-01 -1.734860327201E-01
H65  3.607573272144E-01 -1.123069249824E-01  1.508162369048E-02
H66 -3.607573272144E-01  1.123069249824E-01 -1.508162369048E-02
H67 -3.281240621795E-01  9.476985947803E-02  1.435346185004E-01
H68  3.281240621795E-01 -9.476985947803E-02 -1.435346185004E-01
H69 -2.902761318170E-01  8.015411456369E-02  3.036362378808E-01
H70  2.902761318170E-01 -8.015411456369E-02 -3.036362378808E-01
H71 -3.282421014383E-01  2.617783602895E-01  4.493160262425E-01
H72  3.282421014383E-01 -2.617783602895E-01 -4.493160262425E-01


#===END

data_OPT_STEP_47

_symmetry_space_group_name_H-M 'P 1'
_cell_length_a      7.99496798
_cell_length_b      6.07494493
_cell_length_c     16.08218931
_cell_angle_alpha  101.636680
_cell_angle_beta  112.864555
_cell_angle_gamma   85.844906

loop_
_atom_site_label
_atom_site_fract_x
_atom_site_fract_y
_atom_site_fract_z
C1  1.239370220078E-01  4.086262525544E-02  4.084046739336E-01
C2 -1.239370220078E-01 -4.086262525544E-02 -4.084046739336E-01
C3 -2.449892626201E-02 -2.680918716657E-01  2.807008230876E-01
C4  2.449892626201E-02  2.680918716657E-01 -2.807008230876E-01
C5  3.538895401297E-02 -1.770922222465E-01  3.730880861702E-01
C6 -3.538895401297E-02  1.770922222465E-01 -3.730880861702E-01
C7  1.497589088166E-01  1.608917938510E-01  3.501934220196E-01
C8 -1.497589088166E-01 -1.608917938510E-01 -3.501934220196E-01
C9  9.120598784024E-02  7.080395228348E-02  2.525250017567E-01
C10 -9.120598784024E-02 -7.080395228348E-02 -2.525250017567E-01
C11  1.192487624891E-01  1.875490548535E-01  1.922220626484E-01
C12 -1.192487624891E-01 -1.875490548535E-01 -1.922220626484E-01
C13  6.065264657092E-02  9.710886726457E-02  9.611207097611E-02
C14 -6.065264657092E-02 -9.710886726457E-02 -9.611207097611E-02
C15  8.849802917630E-02  2.136025115622E-01  3.467868565349E-02
C16 -8.849802917630E-02 -2.136025115622E-01 -3.467868565349E-02
C17 -2.990664000296E-02 -1.228558358539E-01  6.044001230942E-02
C18  2.990664000296E-02  1.228558358539E-01 -6.044001230942E-02
C19 -5.703667105499E-02 -2.399256790649E-01  1.228523340007E-01
C20  5.703667105499E-02  2.399256790649E-01 -1.228523340007E-01
C21  1.562808347163E-03 -1.493640604274E-01  2.169418862868E-01
C22 -1.562808347163E-03  1.493640604274E-01 -2.169418862868E-01
H23  1.705028029837E-01  1.114631516270E-01  4.832508969671E-01
H24 -1.705028029837E-01 -1.114631516270E-01 -4.832508969671E-01
H25 -9.356977107041E-02 -4.347248094454E-01  2.534412513230E-01
H26  9.356977107041E-02  4.347248094454E-01 -2.534412513230E-01
H27  1.468747869405E-02 -2.709430277855E-01  4.210753341600E-01
H28 -1.468747869405E-02  2.709430277855E-01 -4.210753341600E-01
H29  2.153340414321E-01  3.299410976241E-01  3.765499478825E-01
H30 -2.153340414321E-01 -3.299410976241E-01 -3.765499478825E-01
H31  1.888586339013E-01  3.542145279386E-01  2.193832267732E-01
H32 -1.888586339013E-01 -3.542145279386E-01 -2.193832267732E-01
H33  1.576700259621E-01  3.805082074089E-01  6.175967659935E-02
H34 -1.576700259621E-01 -3.805082074089E-01 -6.175967659935E-02
H35 -1.256426948909E-01 -4.071630997231E-01  9.573216088112E-02
H36  1.256426948909E-01  4.071630997231E-01 -9.573216088112E-02
C37 -4.529323934485E-01 -4.291528981123E-01  3.983447551583E-01
C38  4.529323934485E-01  4.291528981123E-01 -3.983447551583E-01
C39  4.906398159366E-01 -3.147298335732E-01  3.265052870539E-01
C40 -4.906398159366E-01  3.147298335732E-01 -3.265052870539E-01
C41 -4.904549928078E-01 -4.135752528606E-01  2.407256981757E-01
C42  4.904549928078E-01  4.135752528606E-01 -2.407256981757E-01
C43  4.543311743335E-01 -3.000431793488E-01  1.668660956190E-01
C44 -4.543311743335E-01  3.000431793488E-01 -1.668660956190E-01
C45  4.757426765185E-01 -3.970274322745E-01  8.300314437875E-02
C46 -4.757426765185E-01  3.970274322745E-01 -8.300314437875E-02
C47  4.219929651885E-01 -2.822764981964E-01  8.432898615032E-03
C48 -4.219929651885E-01  2.822764981964E-01 -8.432898615032E-03
C49 -4.444451356431E-01  3.788431197023E-01  7.428807636123E-02
C50  4.444451356431E-01 -3.788431197023E-01 -7.428807636123E-02
C51 -3.896777268264E-01  2.646141351400E-01  1.500892823298E-01
C52  3.896777268264E-01 -2.646141351400E-01 -1.500892823298E-01
C53 -4.106081938754E-01  3.624957632698E-01  2.321105797174E-01
C54  4.106081938754E-01 -3.624957632698E-01 -2.321105797174E-01
C55 -3.526946490204E-01  2.493190860299E-01  3.099060644720E-01
C56  3.526946490204E-01 -2.493190860299E-01 -3.099060644720E-01
C57 -3.734344565422E-01  3.498314729988E-01  3.899929201985E-01
C58  3.734344565422E-01 -3.498314729988E-01 -3.899929201985E-01
H59 -4.675611813320E-01 -3.504866948464E-01  4.638549708013E-01
H60  4.675611813320E-01  3.504866948464E-01 -4.638549708013E-01
H61  4.302624811949E-01 -1.445279802050E-01  3.333226859407E-01
H62 -4.302624811949E-01  1.445279802050E-01 -3.333226859407E-01
H63  3.932916230060E-01 -1.299790769598E-01  1.734914338529E-01
H64 -3.932916230060E-01  1.299790769598E-01 -1.734914338529E-01
H65  3.607451906846E-01 -1.123284725218E-01  1.507454012693E-02
H66 -3.607451906846E-01  1.123284725218E-01 -1.507454012693E-02
H67 -3.281493060181E-01  9.478479464291E-02  1.435412348763E-01
H68  3.281493060181E-01 -9.478479464291E-02 -1.435412348763E-01
H69 -2.902804808443E-01  8.019191996683E-02  3.036514245595E-01
H70  2.902804808443E-01 -8.019191996683E-02 -3.036514245595E-01
H71 -3.282189149565E-01  2.618229221543E-01  4.493375171292E-01
H72  3.282189149565E-01 -2.618229221543E-01 -4.493375171292E-01


#===END

data_OPT_STEP_48

_symmetry_space_group_name_H-M 'P 1'
_cell_length_a      7.99427414
_cell_length_b      6.07527061
_cell_length_c     16.08145317
_cell_angle_alpha  101.637265
_cell_angle_beta  112.859225
_cell_angle_gamma   85.842371

loop_
_atom_site_label
_atom_site_fract_x
_atom_site_fract_y
_atom_site_fract_z
C1  1.239365040310E-01  4.088208407301E-02  4.084156977735E-01
C2 -1.239365040310E-01 -4.088208407301E-02 -4.084156977735E-01
C3 -2.446490056551E-02 -2.680749893934E-01  2.807176767898E-01
C4  2.446490056551E-02  2.680749893934E-01 -2.807176767898E-01
C5  3.541057058786E-02 -1.770745620971E-01  3.731039210115E-01
C6 -3.541057058786E-02  1.770745620971E-01 -3.731039210115E-01
C7  1.497788843292E-01  1.608880526210E-01  3.502009555303E-01
C8 -1.497788843292E-01 -1.608880526210E-01 -3.502009555303E-01
C9  9.124546283656E-02  7.079073466281E-02  2.525335778740E-01
C10 -9.124546283656E-02 -7.079073466281E-02 -2.525335778740E-01
C11  1.192769655357E-01  1.875331860894E-01  1.922253949437E-01
C12 -1.192769655357E-01 -1.875331860894E-01 -1.922253949437E-01
C13  6.070221510912E-02  9.707568645476E-02  9.611619971747E-02
C14 -6.070221510912E-02 -9.707568645476E-02 -9.611619971747E-02
C15  8.850948027824E-02  2.135774346259E-01  3.467297394305E-02
C16 -8.850948027824E-02 -2.135774346259E-01 -3.467297394305E-02
C17 -2.987504482978E-02 -1.228629302746E-01  6.044695460134E-02
C18  2.987504482978E-02  1.228629302746E-01 -6.044695460134E-02
C19 -5.699780371003E-02 -2.399190869444E-01  1.228656276601E-01
C20  5.699780371003E-02  2.399190869444E-01 -1.228656276601E-01
C21  1.606933385646E-03 -1.493639382574E-01  2.169551219072E-01
C22 -1.606933385646E-03  1.493639382574E-01 -2.169551219072E-01
H23  1.705317787673E-01  1.114557730357E-01  4.832639944278E-01
H24 -1.705317787673E-01 -1.114557730357E-01 -4.832639944278E-01
H25 -9.351886594366E-02 -4.347050947546E-01  2.534624990617E-01
H26  9.351886594366E-02  4.347050947546E-01 -2.534624990617E-01
H27  1.467897469813E-02 -2.709077732262E-01  4.210906865698E-01
H28 -1.467897469813E-02  2.709077732262E-01 -4.210906865698E-01
H29  2.153576795801E-01  3.299214488114E-01  3.765532918451E-01
H30 -2.153576795801E-01 -3.299214488114E-01 -3.765532918451E-01
H31  1.889031667744E-01  3.541745905210E-01  2.193822935125E-01
H32 -1.889031667744E-01 -3.541745905210E-01 -2.193822935125E-01
H33  1.576860126391E-01  3.804670444488E-01  6.174955802753E-02
H34 -1.576860126391E-01 -3.804670444488E-01 -6.174955802753E-02
H35 -1.256207621420E-01 -4.071325379988E-01  9.574810768287E-02
H36  1.256207621420E-01  4.071325379988E-01 -9.574810768287E-02
C37 -4.529047918805E-01 -4.291000442568E-01  3.983639265792E-01
C38  4.529047918805E-01  4.291000442568E-01 -3.983639265792E-01
C39  4.907027156684E-01 -3.146604633575E-01  3.265293179601E-01
C40 -4.907027156684E-01  3.146604633575E-01 -3.265293179601E-01
C41 -4.904156070619E-01 -4.135275382338E-01  2.407418207829E-01
C42  4.904156070619E-01  4.135275382338E-01 -2.407418207829E-01
C43  4.543453638218E-01 -3.000182152711E-01  1.668769208985E-01
C44 -4.543453638218E-01  3.000182152711E-01 -1.668769208985E-01
C45  4.757531776296E-01 -3.970130172160E-01  8.300902905416E-02
C46 -4.757531776296E-01  3.970130172160E-01 -8.300902905416E-02
C47  4.219743230114E-01 -2.822881856285E-01  8.431207207507E-03
C48 -4.219743230114E-01  2.822881856285E-01 -8.431207207507E-03
C49 -4.444306570559E-01  3.788632197177E-01  7.429288511751E-02
C50  4.444306570559E-01 -3.788632197177E-01 -7.429288511751E-02
C51 -3.896684231228E-01  2.646435831065E-01  1.500966055177E-01
C52  3.896684231228E-01 -2.646435831065E-01 -1.500966055177E-01
C53 -4.105723147438E-01  3.625429067782E-01  2.321243406519E-01
C54  4.105723147438E-01 -3.625429067782E-01 -2.321243406519E-01
C55 -3.526862575344E-01  2.493631580151E-01  3.099167482482E-01
C56  3.526862575344E-01 -2.493631580151E-01 -3.099167482482E-01
C57 -3.734243146185E-01  3.498777618226E-01  3.900064840082E-01
C58  3.734243146185E-01 -3.498777618226E-01 -3.900064840082E-01
H59 -4.675523830453E-01 -3.504436327069E-01  4.638758037186E-01
H60  4.675523830453E-01  3.504436327069E-01 -4.638758037186E-01
H61  4.303545091838E-01 -1.444467384458E-01  3.333534063104E-01
H62 -4.303545091838E-01  1.444467384458E-01 -3.333534063104E-01
H63  3.933242175238E-01 -1.299451363334E-01  1.735064896812E-01
H64 -3.933242175238E-01  1.299451363334E-01 -1.735064896812E-01
H65  3.607133198752E-01 -1.123486802857E-01  1.507133099247E-02
H66 -3.607133198752E-01  1.123486802857E-01 -1.507133099247E-02
H67 -3.281668099176E-01  9.479890840843E-02  1.435422060198E-01
H68  3.281668099176E-01 -9.479890840843E-02 -1.435422060198E-01
H69 -2.902371823261E-01  8.025803150657E-02  3.036668614511E-01
H70  2.902371823261E-01 -8.025803150657E-02 -3.036668614511E-01
H71 -3.282093442356E-01  2.618720884420E-01  4.493522933239E-01
H72  3.282093442356E-01 -2.618720884420E-01 -4.493522933239E-01


#===END

data_OPT_STEP_49

_symmetry_space_group_name_H-M 'P 1'
_cell_length_a      7.99343493
_cell_length_b      6.07578135
_cell_length_c     16.08067792
_cell_angle_alpha  101.635320
_cell_angle_beta  112.854536
_cell_angle_gamma   85.843614

loop_
_atom_site_label
_atom_site_fract_x
_atom_site_fract_y
_atom_site_fract_z
C1  1.239219726619E-01  4.087584034527E-02  4.084263968403E-01
C2 -1.239219726619E-01 -4.087584034527E-02 -4.084263968403E-01
C3 -2.448704816060E-02 -2.680468861823E-01  2.807304711437E-01
C4  2.448704816060E-02  2.680468861823E-01 -2.807304711437E-01
C5  3.537853113309E-02 -1.770516242044E-01  3.731164119177E-01
C6 -3.537853113309E-02  1.770516242044E-01 -3.731164119177E-01
C7  1.497754176183E-01  1.608697239367E-01  3.502080173641E-01
C8 -1.497754176183E-01 -1.608697239367E-01 -3.502080173641E-01
C9  9.123894997846E-02  7.078631589138E-02  2.525397729772E-01
C10 -9.123894997846E-02 -7.078631589138E-02 -2.525397729772E-01
C11  1.192625536773E-01  1.875276533769E-01  1.922261436694E-01
C12 -1.192625536773E-01 -1.875276533769E-01 -1.922261436694E-01
C13  6.068153758900E-02  9.708125363581E-02  9.611571486839E-02
C14 -6.068153758900E-02 -9.708125363581E-02 -9.611571486839E-02
C15  8.850571365610E-02  2.135620791704E-01  3.466854923702E-02
C16 -8.850571365610E-02 -2.135620791704E-01 -3.466854923702E-02
C17 -2.988935285374E-02 -1.228419640474E-01  6.045146326931E-02
C18  2.988935285374E-02  1.228419640474E-01 -6.045146326931E-02
C19 -5.699688047241E-02 -2.399030308155E-01  1.228756873067E-01
C20  5.699688047241E-02  2.399030308155E-01 -1.228756873067E-01
C21  1.603437693516E-03 -1.493527952795E-01  2.169656752506E-01
C22 -1.603437693516E-03  1.493527952795E-01 -2.169656752506E-01
H23  1.704861068029E-01  1.114613509767E-01  4.832738733668E-01
H24 -1.704861068029E-01 -1.114613509767E-01 -4.832738733668E-01
H25 -9.351302675926E-02 -4.346807109227E-01  2.534803962435E-01
H26  9.351302675926E-02  4.346807109227E-01 -2.534803962435E-01
H27  1.463643315547E-02 -2.708815830148E-01  4.211038145356E-01
H28 -1.463643315547E-02  2.708815830148E-01 -4.211038145356E-01
H29  2.153492283349E-01  3.298930915903E-01  3.765565612114E-01
H30 -2.153492283349E-01 -3.298930915903E-01 -3.765565612114E-01
H31  1.888909242012E-01  3.541550940346E-01  2.193789559774E-01
H32 -1.888909242012E-01 -3.541550940346E-01 -2.193789559774E-01
H33  1.576773860596E-01  3.804406149039E-01  6.174071930351E-02
H34 -1.576773860596E-01 -3.804406149039E-01 -6.174071930351E-02
H35 -1.256091897118E-01 -4.071097236376E-01  9.576209538730E-02
H36  1.256091897118E-01  4.071097236376E-01 -9.576209538730E-02
C37 -4.528949304313E-01 -4.290617094538E-01  3.983848879603E-01
C38  4.528949304313E-01  4.290617094538E-01 -3.983848879603E-01
C39  4.907155483656E-01 -3.146332672687E-01  3.265467355732E-01
C40 -4.907155483656E-01  3.146332672687E-01 -3.265467355732E-01
C41 -4.904165766920E-01 -4.135094603888E-01  2.407531941365E-01
C42  4.904165766920E-01  4.135094603888E-01 -2.407531941365E-01
C43  4.543364065048E-01 -3.000194015737E-01  1.668825475856E-01
C44 -4.543364065048E-01  3.000194015737E-01 -1.668825475856E-01
C45  4.757332361899E-01 -3.970228237745E-01  8.300898811846E-02
C46 -4.757332361899E-01  3.970228237745E-01 -8.300898811846E-02
C47  4.219563390961E-01 -2.823113498148E-01  8.426912434746E-03
C48 -4.219563390961E-01  2.823113498148E-01 -8.426912434746E-03
C49 -4.444361343953E-01  3.788757072456E-01  7.429679404674E-02
C50  4.444361343953E-01 -3.788757072456E-01 -7.429679404674E-02
C51 -3.897012034630E-01  2.646577826450E-01  1.500995025156E-01
C52  3.897012034630E-01 -2.646577826450E-01 -1.500995025156E-01
C53 -4.105961304210E-01  3.625604375179E-01  2.321323968768E-01
C54  4.105961304210E-01 -3.625604375179E-01 -2.321323968768E-01
C55 -3.526997504822E-01  2.494037074941E-01  3.099307394581E-01
C56  3.526997504822E-01 -2.494037074941E-01 -3.099307394581E-01
C57 -3.734188925862E-01  3.499284706607E-01  3.900269900355E-01
C58  3.734188925862E-01 -3.499284706607E-01 -3.900269900355E-01
H59 -4.675419956511E-01 -3.504048141229E-01  4.638999592907E-01
H60  4.675419956511E-01  3.504048141229E-01 -4.638999592907E-01
H61  4.303632784787E-01 -1.444334801475E-01  3.333694401544E-01
H62 -4.303632784787E-01  1.444334801475E-01 -3.333694401544E-01
H63  3.933037932105E-01 -1.299631649605E-01  1.735087835541E-01
H64 -3.933037932105E-01  1.299631649605E-01 -1.735087835541E-01
H65  3.607058062355E-01 -1.123774070829E-01  1.506754325346E-02
H66 -3.607058062355E-01  1.123774070829E-01 -1.506754325346E-02
H67 -3.282233258829E-01  9.480964843796E-02  1.435418698881E-01
H68  3.282233258829E-01 -9.480964843796E-02 -1.435418698881E-01
H69 -2.902465411520E-01  8.031180459939E-02  3.036829443189E-01
H70  2.902465411520E-01 -8.031180459939E-02 -3.036829443189E-01
H71 -3.281944929610E-01  2.619351125874E-01  4.493765249246E-01
H72  3.281944929610E-01 -2.619351125874E-01 -4.493765249246E-01


#===END

data_OPT_STEP_50

_symmetry_space_group_name_H-M 'P 1'
_cell_length_a      7.99254084
_cell_length_b      6.07612628
_cell_length_c     16.08004765
_cell_angle_alpha  101.635279
_cell_angle_beta  112.845372
_cell_angle_gamma   85.844410

loop_
_atom_site_label
_atom_site_fract_x
_atom_site_fract_y
_atom_site_fract_z
C1  1.239139035436E-01  4.087849419031E-02  4.084303876690E-01
C2 -1.239139035436E-01 -4.087849419031E-02 -4.084303876690E-01
C3 -2.446752606135E-02 -2.680400702569E-01  2.807450874210E-01
C4  2.446752606135E-02  2.680400702569E-01 -2.807450874210E-01
C5  3.538770676211E-02 -1.770459296859E-01  3.731281791478E-01
C6 -3.538770676211E-02  1.770459296859E-01 -3.731281791478E-01
C7  1.497640357088E-01  1.608689145384E-01  3.502075430823E-01
C8 -1.497640357088E-01 -1.608689145384E-01 -3.502075430823E-01
C9  9.124070224040E-02  7.078457734376E-02  2.525416442995E-01
C10 -9.124070224040E-02 -7.078457734376E-02 -2.525416442995E-01
C11  1.192590075937E-01  1.875208482114E-01  1.922222655817E-01
C12 -1.192590075937E-01 -1.875208482114E-01 -1.922222655817E-01
C13  6.068152069405E-02  9.707693749960E-02  9.611412533749E-02
C14 -6.068152069405E-02 -9.707693749960E-02 -9.611412533749E-02
C15  8.849160432329E-02  2.135570866893E-01  3.465971183825E-02
C16 -8.849160432329E-02 -2.135570866893E-01 -3.465971183825E-02
C17 -2.987415788728E-02 -1.228427709787E-01  6.045787360927E-02
C18  2.987415788728E-02  1.228427709787E-01 -6.045787360927E-02
C19 -5.697518908640E-02 -2.398987078581E-01  1.228881587345E-01
C20  5.697518908640E-02  2.398987078581E-01 -1.228881587345E-01
C21  1.619630822943E-03 -1.493504546931E-01  2.169755504023E-01
C22 -1.619630822943E-03  1.493504546931E-01 -2.169755504023E-01
H23  1.704699931542E-01  1.114634159610E-01  4.832756931774E-01
H24 -1.704699931542E-01 -1.114634159610E-01 -4.832756931774E-01
H25 -9.347821754138E-02 -4.346736397176E-01  2.535012386937E-01
H26  9.347821754138E-02  4.346736397176E-01 -2.535012386937E-01
H27  1.465051440994E-02 -2.708764230280E-01  4.211187256610E-01
H28 -1.465051440994E-02  2.708764230280E-01 -4.211187256610E-01
H29  2.153236296577E-01  3.298908655661E-01  3.765525299503E-01
H30 -2.153236296577E-01 -3.298908655661E-01 -3.765525299503E-01
H31  1.888670457289E-01  3.541520441999E-01  2.193677274135E-01
H32 -1.888670457289E-01 -3.541520441999E-01 -2.193677274135E-01
H33  1.576507714166E-01  3.804332016713E-01  6.172469107350E-02
H34 -1.576507714166E-01 -3.804332016713E-01 -6.172469107350E-02
H35 -1.255850060244E-01 -4.070972374330E-01  9.578077916756E-02
H36  1.255850060244E-01  4.070972374330E-01 -9.578077916756E-02
C37 -4.528721510936E-01 -4.290542538357E-01  3.983990846319E-01
C38  4.528721510936E-01  4.290542538357E-01 -3.983990846319E-01
C39  4.907377591586E-01 -3.146318999794E-01  3.265633550574E-01
C40 -4.907377591586E-01  3.146318999794E-01 -3.265633550574E-01
C41 -4.904075472994E-01 -4.135111066704E-01  2.407625646857E-01
C42  4.904075472994E-01  4.135111066704E-01 -2.407625646857E-01
C43  4.543553605446E-01 -3.000190051300E-01  1.668965719178E-01
C44 -4.543553605446E-01  3.000190051300E-01 -1.668965719178E-01
C45  4.757427935301E-01 -3.970229013978E-01  8.301598663132E-02
C46 -4.757427935301E-01  3.970229013978E-01 -8.301598663132E-02
C47  4.219659322553E-01 -2.823155079092E-01  8.436599678840E-03
C48 -4.219659322553E-01  2.823155079092E-01 -8.436599678840E-03
C49 -4.444349933563E-01  3.788806304430E-01  7.429412064775E-02
C50  4.444349933563E-01 -3.788806304430E-01 -7.429412064775E-02
C51 -3.896975203916E-01  2.646676467488E-01  1.500949622914E-01
C52  3.896975203916E-01 -2.646676467488E-01 -1.500949622914E-01
C53 -4.105882128915E-01  3.625681926940E-01  2.321334131871E-01
C54  4.105882128915E-01 -3.625681926940E-01 -2.321334131871E-01
C55 -3.526927375042E-01  2.494148437554E-01  3.099292625218E-01
C56  3.526927375042E-01 -2.494148437554E-01 -3.099292625218E-01
C57 -3.734143118687E-01  3.499345839280E-01  3.900301705764E-01
C58  3.734143118687E-01 -3.499345839280E-01 -3.900301705764E-01
H59 -4.675204735309E-01 -3.503975613306E-01  4.639170656098E-01
H60  4.675204735309E-01  3.503975613306E-01 -4.639170656098E-01
H61  4.303922162309E-01 -1.444350605616E-01  3.333931567113E-01
H62 -4.303922162309E-01  1.444350605616E-01 -3.333931567113E-01
H63  3.933276153988E-01 -1.299669222520E-01  1.735300334884E-01
H64 -3.933276153988E-01  1.299669222520E-01 -1.735300334884E-01
H65  3.607213458353E-01 -1.123852739261E-01  1.508470918181E-02
H66 -3.607213458353E-01  1.123852739261E-01 -1.508470918181E-02
H67 -3.282134960231E-01  9.482997272570E-02  1.435321024993E-01
H68  3.282134960231E-01 -9.482997272570E-02 -1.435321024993E-01
H69 -2.902540088048E-01  8.032128375251E-02  3.036730680951E-01
H70  2.902540088048E-01 -8.032128375251E-02 -3.036730680951E-01
H71 -3.281922225335E-01  2.619424291566E-01  4.493768835698E-01
H72  3.281922225335E-01 -2.619424291566E-01 -4.493768835698E-01


#===END

data_OPT_STEP_51

_symmetry_space_group_name_H-M 'P 1'
_cell_length_a      7.99224893
_cell_length_b      6.07616039
_cell_length_c     16.07958657
_cell_angle_alpha  101.637488
_cell_angle_beta  112.835166
_cell_angle_gamma   85.844023

loop_
_atom_site_label
_atom_site_fract_x
_atom_site_fract_y
_atom_site_fract_z
C1  1.239024487697E-01  4.087191208401E-02  4.084297313455E-01
C2 -1.239024487697E-01 -4.087191208401E-02 -4.084297313455E-01
C3 -2.445796957058E-02 -2.680491192541E-01  2.807512030240E-01
C4  2.445796957058E-02  2.680491192541E-01 -2.807512030240E-01
C5  3.538982653825E-02 -1.770564491427E-01  3.731320905129E-01
C6 -3.538982653825E-02  1.770564491427E-01 -3.731320905129E-01
C7  1.497565495756E-01  1.608617320829E-01  3.502051771009E-01
C8 -1.497565495756E-01 -1.608617320829E-01 -3.502051771009E-01
C9  9.124217935072E-02  7.077764813903E-02  2.525411592106E-01
C10 -9.124217935072E-02 -7.077764813903E-02 -2.525411592106E-01
C11  1.192560094221E-01  1.875155975625E-01  1.922188193680E-01
C12 -1.192560094221E-01 -1.875155975625E-01 -1.922188193680E-01
C13  6.068355884897E-02  9.707312845360E-02  9.611274386071E-02
C14 -6.068355884897E-02 -9.707312845360E-02 -9.611274386071E-02
C15  8.848330548935E-02  2.135583829954E-01  3.465451190036E-02
C16 -8.848330548935E-02 -2.135583829954E-01 -3.465451190036E-02
C17 -2.986628339206E-02 -1.228475041958E-01  6.046095573867E-02
C18  2.986628339206E-02  1.228475041958E-01 -6.046095573867E-02
C19 -5.696046408157E-02 -2.399057729154E-01  1.228945890625E-01
C20  5.696046408157E-02  2.399057729154E-01 -1.228945890625E-01
C21  1.631695367254E-03 -1.493604363609E-01  2.169798517219E-01
C22 -1.631695367254E-03  1.493604363609E-01 -2.169798517219E-01
H23  1.704510345999E-01  1.114587401186E-01  4.832733011379E-01
H24 -1.704510345999E-01 -1.114587401186E-01 -4.832733011379E-01
H25 -9.345679878926E-02 -4.346877002943E-01  2.535110246205E-01
H26  9.345679878926E-02  4.346877002943E-01 -2.535110246205E-01
H27  1.465133360531E-02 -2.708877707530E-01  4.211237674409E-01
H28 -1.465133360531E-02  2.708877707530E-01 -4.211237674409E-01
H29  2.152998201047E-01  3.298927197558E-01  3.765497691340E-01
H30 -2.152998201047E-01 -3.298927197558E-01 -3.765497691340E-01
H31  1.888589414881E-01  3.541467654327E-01  2.193603651572E-01
H32 -1.888589414881E-01 -3.541467654327E-01 -2.193603651572E-01
H33  1.576358341660E-01  3.804358579355E-01  6.171524506025E-02
H34 -1.576358341660E-01 -3.804358579355E-01 -6.171524506025E-02
H35 -1.255784704435E-01 -4.070965878945E-01  9.579025612205E-02
H36  1.255784704435E-01  4.070965878945E-01 -9.579025612205E-02
C37 -4.528607136005E-01 -4.290532579788E-01  3.984093309750E-01
C38  4.528607136005E-01  4.290532579788E-01 -3.984093309750E-01
C39  4.907551427542E-01 -3.146268567308E-01  3.265795192120E-01
C40 -4.907551427542E-01  3.146268567308E-01 -3.265795192120E-01
C41 -4.903917925196E-01 -4.135056940057E-01  2.407727389122E-01
C42  4.903917925196E-01  4.135056940057E-01 -2.407727389122E-01
C43  4.543679365436E-01 -3.000129519696E-01  1.669113314012E-01
C44 -4.543679365436E-01  3.000129519696E-01 -1.669113314012E-01
C45  4.757488131728E-01 -3.970190689942E-01  8.302349973247E-02
C46 -4.757488131728E-01  3.970190689942E-01 -8.302349973247E-02
C47  4.219567138491E-01 -2.823181389193E-01  8.446291407939E-03
C48 -4.219567138491E-01  2.823181389193E-01 -8.446291407939E-03
C49 -4.444248666094E-01  3.788837095074E-01  7.429071150149E-02
C50  4.444248666094E-01 -3.788837095074E-01 -7.429071150149E-02
C51 -3.896739661029E-01  2.646749407520E-01  1.500890526973E-01
C52  3.896739661029E-01 -2.646749407520E-01 -1.500890526973E-01
C53 -4.105680688216E-01  3.625744958365E-01  2.321327822671E-01
C54  4.105680688216E-01 -3.625744958365E-01 -2.321327822671E-01
C55 -3.526694354684E-01  2.494197825769E-01  3.099241493627E-01
C56  3.526694354684E-01 -2.494197825769E-01 -3.099241493627E-01
C57 -3.733974715879E-01  3.499365896690E-01  3.900298486437E-01
C58  3.733974715879E-01 -3.499365896690E-01 -3.900298486437E-01
H59 -4.675142571480E-01 -3.503939168104E-01  4.639308185550E-01
H60  4.675142571480E-01  3.503939168104E-01 -4.639308185550E-01
H61  4.304069052733E-01 -1.444292657284E-01  3.334176222184E-01
H62 -4.304069052733E-01  1.444292657284E-01 -3.334176222184E-01
H63  3.933407123378E-01 -1.299588517773E-01  1.735538319890E-01
H64 -3.933407123378E-01  1.299588517773E-01 -1.735538319890E-01
H65  3.607097730001E-01 -1.123872598886E-01  1.510287828903E-02
H66 -3.607097730001E-01  1.123872598886E-01 -1.510287828903E-02
H67 -3.281886428628E-01  9.483692196914E-02  1.435175640556E-01
H68  3.281886428628E-01 -9.483692196914E-02 -1.435175640556E-01
H69 -2.902363928650E-01  8.032142487368E-02  3.036584926805E-01
H70  2.902363928650E-01 -8.032142487368E-02 -3.036584926805E-01
H71 -3.281843772086E-01  2.619367290261E-01  4.493704651927E-01
H72  3.281843772086E-01 -2.619367290261E-01 -4.493704651927E-01


#===END

data_OPT_STEP_52

_symmetry_space_group_name_H-M 'P 1'
_cell_length_a      7.99128698
_cell_length_b      6.07621866
_cell_length_c     16.07916718
_cell_angle_alpha  101.637461
_cell_angle_beta  112.831395
_cell_angle_gamma   85.843159

loop_
_atom_site_label
_atom_site_fract_x
_atom_site_fract_y
_atom_site_fract_z
C1  1.238908267011E-01  4.087934131693E-02  4.084344392320E-01
C2 -1.238908267011E-01 -4.087934131693E-02 -4.084344392320E-01
C3 -2.440789037546E-02 -2.680735090131E-01  2.807694993651E-01
C4  2.440789037546E-02  2.680735090131E-01 -2.807694993651E-01
C5  3.541988796008E-02 -1.770633876053E-01  3.731455807026E-01
C6 -3.541988796008E-02  1.770633876053E-01 -3.731455807026E-01
C7  1.497139774507E-01  1.608827708511E-01  3.502044115338E-01
C8 -1.497139774507E-01 -1.608827708511E-01 -3.502044115338E-01
C9  9.124123927140E-02  7.077406859310E-02  2.525433102477E-01
C10 -9.124123927140E-02 -7.077406859310E-02 -2.525433102477E-01
C11  1.192233882253E-01  1.875280109875E-01  1.922149199887E-01
C12 -1.192233882253E-01 -1.875280109875E-01 -1.922149199887E-01
C13  6.067251303309E-02  9.707431934904E-02  9.611035251476E-02
C14 -6.067251303309E-02 -9.707431934904E-02 -9.611035251476E-02
C15  8.844305208607E-02  2.135787623066E-01  3.464631365873E-02
C16 -8.844305208607E-02 -2.135787623066E-01 -3.464631365873E-02
C17 -2.984474474445E-02 -1.228598384178E-01  6.046596457970E-02
C18  2.984474474445E-02  1.228598384178E-01 -6.046596457970E-02
C19 -5.691236795995E-02 -2.399339750439E-01  1.229077394794E-01
C20  5.691236795995E-02  2.399339750439E-01 -1.229077394794E-01
C21  1.664472755867E-03 -1.493792748016E-01  2.169899735566E-01
C22 -1.664472755867E-03  1.493792748016E-01 -2.169899735566E-01
H23  1.703873309127E-01  1.115009524352E-01  4.832746011201E-01
H24 -1.703873309127E-01 -1.115009524352E-01 -4.832746011201E-01
H25 -9.341763430537E-02 -4.347036202518E-01  2.535343372292E-01
H26  9.341763430537E-02  4.347036202518E-01 -2.535343372292E-01
H27  1.468005370673E-02 -2.708848572069E-01  4.211414879866E-01
H28 -1.468005370673E-02  2.708848572069E-01 -4.211414879866E-01
H29  2.152098199842E-01  3.299404608598E-01  3.765468393274E-01
H30 -2.152098199842E-01 -3.299404608598E-01 -3.765468393274E-01
H31  1.887736415917E-01  3.541878981283E-01  2.193473507635E-01
H32 -1.887736415917E-01 -3.541878981283E-01 -2.193473507635E-01
H33  1.575772957505E-01  3.804657426201E-01  6.170228693207E-02
H34 -1.575772957505E-01 -3.804657426201E-01 -6.170228693207E-02
H35 -1.255082119682E-01 -4.071362127160E-01  9.580894247159E-02
H36  1.255082119682E-01  4.071362127160E-01 -9.580894247159E-02
C37 -4.528192611912E-01 -4.290165239420E-01  3.984278513259E-01
C38  4.528192611912E-01  4.290165239420E-01 -3.984278513259E-01
C39  4.908026316651E-01 -3.145834568178E-01  3.266003041450E-01
C40 -4.908026316651E-01  3.145834568178E-01 -3.266003041450E-01
C41 -4.903591157185E-01 -4.134706662533E-01  2.407863695169E-01
C42  4.903591157185E-01  4.134706662533E-01 -2.407863695169E-01
C43  4.544003701284E-01 -2.999814669955E-01  1.669227966164E-01
C44 -4.544003701284E-01  2.999814669955E-01 -1.669227966164E-01
C45  4.757680238106E-01 -3.970027314956E-01  8.302931727845E-02
C46 -4.757680238106E-01  3.970027314956E-01 -8.302931727845E-02
C47  4.219858782279E-01 -2.823005621502E-01  8.452587696867E-03
C48 -4.219858782279E-01  2.823005621502E-01 -8.452587696867E-03
C49 -4.444366873167E-01  3.788824411043E-01  7.429033478680E-02
C50  4.444366873167E-01 -3.788824411043E-01 -7.429033478680E-02
C51 -3.896773780318E-01  2.646837237343E-01  1.500908472306E-01
C52  3.896773780318E-01 -2.646837237343E-01 -1.500908472306E-01
C53 -4.105614677590E-01  3.625933067064E-01  2.321394057499E-01
C54  4.105614677590E-01 -3.625933067064E-01 -2.321394057499E-01
C55 -3.526698726591E-01  2.494350225519E-01  3.099285203238E-01
C56  3.526698726591E-01 -2.494350225519E-01 -3.099285203238E-01
C57 -3.733659276553E-01  3.499672529622E-01  3.900414910554E-01
C58  3.733659276553E-01 -3.499672529622E-01 -3.900414910554E-01
H59 -4.674522812489E-01 -3.503631879036E-01  4.639578034492E-01
H60  4.674522812489E-01  3.503631879036E-01 -4.639578034492E-01
H61  4.304413686112E-01 -1.443860130406E-01  3.334398019047E-01
H62 -4.304413686112E-01  1.443860130406E-01 -3.334398019047E-01
H63  3.933881215714E-01 -1.299160630727E-01  1.735673045895E-01
H64 -3.933881215714E-01  1.299160630727E-01 -1.735673045895E-01
H65  3.607490371131E-01 -1.123609421741E-01  1.511131320117E-02
H66 -3.607490371131E-01  1.123609421741E-01 -1.511131320117E-02
H67 -3.282262604759E-01  9.482247011497E-02  1.435138131665E-01
H68  3.282262604759E-01 -9.482247011497E-02 -1.435138131665E-01
H69 -2.902430086310E-01  8.032876940289E-02  3.036590526965E-01
H70  2.902430086310E-01 -8.032876940289E-02 -3.036590526965E-01
H71 -3.281508990632E-01  2.619688542592E-01  4.493829260113E-01
H72  3.281508990632E-01 -2.619688542592E-01 -4.493829260113E-01


#===END

data_OPT_STEP_53

_symmetry_space_group_name_H-M 'P 1'
_cell_length_a      7.99021444
_cell_length_b      6.07626420
_cell_length_c     16.07864065
_cell_angle_alpha  101.638063
_cell_angle_beta  112.827108
_cell_angle_gamma   85.842395

loop_
_atom_site_label
_atom_site_fract_x
_atom_site_fract_y
_atom_site_fract_z
C1  1.238534142274E-01  4.089321195029E-02  4.084379025416E-01
C2 -1.238534142274E-01 -4.089321195029E-02 -4.084379025416E-01
C3 -2.437881075636E-02 -2.680990354260E-01  2.807832270507E-01
C4  2.437881075636E-02  2.680990354260E-01 -2.807832270507E-01
C5  3.542908101266E-02 -1.770731990805E-01  3.731550812828E-01
C6 -3.542908101266E-02  1.770731990805E-01 -3.731550812828E-01
C7  1.496839643814E-01  1.608900397805E-01  3.502052146609E-01
C8 -1.496839643814E-01 -1.608900397805E-01 -3.502052146609E-01
C9  9.123212605163E-02  7.077401428188E-02  2.525456174907E-01
C10 -9.123212605163E-02 -7.077401428188E-02 -2.525456174907E-01
C11  1.192008811257E-01  1.875364782773E-01  1.922132997826E-01
C12 -1.192008811257E-01 -1.875364782773E-01 -1.922132997826E-01
C13  6.067515916441E-02  9.706757503094E-02  9.610926664317E-02
C14 -6.067515916441E-02 -9.706757503094E-02 -9.610926664317E-02
C15  8.841898237683E-02  2.135951887873E-01  3.464046973489E-02
C16 -8.841898237683E-02 -2.135951887873E-01 -3.464046973488E-02
C17 -2.981957223558E-02 -1.228797083644E-01  6.046990506471E-02
C18  2.981957223558E-02  1.228797083644E-01 -6.046990506471E-02
C19 -5.686921654882E-02 -2.399674308179E-01  1.229184846842E-01
C20  5.686921654882E-02  2.399674308179E-01 -1.229184846842E-01
C21  1.691442771038E-03 -1.494017189041E-01  2.169980875217E-01
C22 -1.691442771038E-03  1.494017189041E-01 -2.169980875217E-01
H23  1.703334641398E-01  1.115244540945E-01  4.832772987134E-01
H24 -1.703334641398E-01 -1.115244540945E-01 -4.832772987134E-01
H25 -9.337192650097E-02 -4.347412548115E-01  2.535525890596E-01
H26  9.337192650097E-02  4.347412548115E-01 -2.535525890596E-01
H27  1.470128581614E-02 -2.709074055746E-01  4.211529203953E-01
H28 -1.470128581614E-02  2.709074055746E-01 -4.211529203953E-01
H29  2.151295935853E-01  3.299782453799E-01  3.765453633361E-01
H30 -2.151295935853E-01 -3.299782453799E-01 -3.765453633361E-01
H31  1.887039674432E-01  3.542261478387E-01  2.193374201603E-01
H32 -1.887039674432E-01 -3.542261478387E-01 -2.193374201603E-01
H33  1.575288715958E-01  3.804998232631E-01  6.169298578303E-02
H34 -1.575288715958E-01 -3.804998232631E-01 -6.169298578303E-02
H35 -1.254366908702E-01 -4.071884573963E-01  9.582409859893E-02
H36  1.254366908702E-01  4.071884573963E-01 -9.582409859893E-02
C37 -4.527966202839E-01 -4.289718047380E-01  3.984474890167E-01
C38  4.527966202839E-01  4.289718047380E-01 -3.984474890167E-01
C39  4.908151077179E-01 -3.145439071045E-01  3.266189387231E-01
C40 -4.908151077179E-01  3.145439071045E-01 -3.266189387231E-01
C41 -4.903432364936E-01 -4.134331519252E-01  2.408000663482E-01
C42  4.903432364936E-01  4.134331519252E-01 -2.408000663482E-01
C43  4.544213814279E-01 -2.999455949625E-01  1.669351102850E-01
C44 -4.544213814279E-01  2.999455949625E-01 -1.669351102850E-01
C45  4.757795795140E-01 -3.969844825816E-01  8.303544903105E-02
C46 -4.757795795140E-01  3.969844825816E-01 -8.303544903105E-02
C47  4.219965327177E-01 -2.822869156443E-01  8.456868145653E-03
C48 -4.219965327177E-01  2.822869156443E-01 -8.456868145653E-03
C49 -4.444430082304E-01  3.788838726248E-01  7.429159375726E-02
C50  4.444430082304E-01 -3.788838726248E-01 -7.429159375726E-02
C51 -3.897023670524E-01  2.646821353807E-01  1.500888759979E-01
C52  3.897023670524E-01 -2.646821353807E-01 -1.500888759979E-01
C53 -4.105651319133E-01  3.626137199882E-01  2.321459006504E-01
C54  4.105651319133E-01 -3.626137199882E-01 -2.321459006504E-01
C55 -3.526521136725E-01  2.494659401341E-01  3.099379775699E-01
C56  3.526521136725E-01 -2.494659401341E-01 -3.099379775699E-01
C57 -3.733525191595E-01  3.500021133625E-01  3.900541656074E-01
C58  3.733525191595E-01 -3.500021133625E-01 -3.900541656074E-01
H59 -4.674171542757E-01 -3.503257050333E-01  4.639853508802E-01
H60  4.674171542757E-01  3.503257050333E-01 -4.639853508802E-01
H61  4.304619150815E-01 -1.443351797351E-01  3.334632631150E-01
H62 -4.304619150815E-01  1.443351797351E-01 -3.334632631150E-01
H63  3.934070248632E-01 -1.298752944735E-01  1.735790606266E-01
H64 -3.934070248632E-01  1.298752944735E-01 -1.735790606266E-01
H65  3.607734648195E-01 -1.123341004872E-01  1.511883594717E-02
H66 -3.607734648195E-01  1.123341004872E-01 -1.511883594717E-02
H67 -3.282571838824E-01  9.481060845497E-02  1.435114365091E-01
H68  3.282571838824E-01 -9.481060845497E-02 -1.435114365091E-01
H69 -2.902494812201E-01  8.033848529512E-02  3.036608417063E-01
H70  2.902494812201E-01 -8.033848529512E-02 -3.036608417063E-01
H71 -3.281358921043E-01  2.620078826500E-01  4.493967997920E-01
H72  3.281358921043E-01 -2.620078826500E-01 -4.493967997920E-01


#===END

data_OPT_STEP_54

_symmetry_space_group_name_H-M 'P 1'
_cell_length_a      7.98909682
_cell_length_b      6.07637047
_cell_length_c     16.07800132
_cell_angle_alpha  101.638273
_cell_angle_beta  112.822222
_cell_angle_gamma   85.842569

loop_
_atom_site_label
_atom_site_fract_x
_atom_site_fract_y
_atom_site_fract_z
C1  1.238329596702E-01  4.090652375006E-02  4.084439157784E-01
C2 -1.238329596702E-01 -4.090652375006E-02 -4.084439157784E-01
C3 -2.435461333729E-02 -2.681138704207E-01  2.807980101434E-01
C4  2.435461333729E-02  2.681138704207E-01 -2.807980101434E-01
C5  3.544236670004E-02 -1.770787249963E-01  3.731670382334E-01
C6 -3.544236670004E-02  1.770787249963E-01 -3.731670382334E-01
C7  1.496482436954E-01  1.609133435945E-01  3.502074128485E-01
C8 -1.496482436954E-01 -1.609133435945E-01 -3.502074128485E-01
C9  9.122915861628E-02  7.077917221491E-02  2.525495806639E-01
C10 -9.122915861628E-02 -7.077917221491E-02 -2.525495806639E-01
C11  1.191802835758E-01  1.875519966531E-01  1.922117584412E-01
C12 -1.191802835758E-01 -1.875519966531E-01 -1.922117584412E-01
C13  6.066104858838E-02  9.707530128766E-02  9.610798461030E-02
C14 -6.066104858838E-02 -9.707530128766E-02 -9.610798461030E-02
C15  8.838501129151E-02  2.136185993248E-01  3.463350954545E-02
C16 -8.838501129151E-02 -2.136185993248E-01 -3.463350954545E-02
C17 -2.979670820266E-02 -1.228945065611E-01  6.047477450259E-02
C18  2.979670820266E-02  1.228945065611E-01 -6.047477450259E-02
C19 -5.683126436506E-02 -2.399925274647E-01  1.229299378487E-01
C20  5.683126436506E-02  2.399925274647E-01 -1.229299378487E-01
C21  1.708725122488E-03 -1.494114070064E-01  2.170068202211E-01
C22 -1.708725122488E-03  1.494114070064E-01 -2.170068202211E-01
H23  1.702769752626E-01  1.115616422618E-01  4.832812652212E-01
H24 -1.702769752626E-01 -1.115616422618E-01 -4.832812652212E-01
H25 -9.332910152374E-02 -4.347681289655E-01  2.535712322193E-01
H26  9.332910152374E-02  4.347681289655E-01 -2.535712322193E-01
H27  1.472529086868E-02 -2.709255913368E-01  4.211672850602E-01
H28 -1.472529086868E-02  2.709255913368E-01 -4.211672850602E-01
H29  2.150542158891E-01  3.300247750227E-01  3.765436716851E-01
H30 -2.150542158891E-01 -3.300247750227E-01 -3.765436716851E-01
H31  1.886393611534E-01  3.542723713651E-01  2.193268482911E-01
H32 -1.886393611534E-01 -3.542723713651E-01 -2.193268482911E-01
H33  1.574805274759E-01  3.805339748812E-01  6.168304585546E-02
H34 -1.574805274759E-01 -3.805339748812E-01 -6.168304585546E-02
H35 -1.253854510442E-01 -4.072229458571E-01  9.583876058684E-02
H36  1.253854510442E-01  4.072229458571E-01 -9.583876058684E-02
C37 -4.527689693439E-01 -4.289322917976E-01  3.984668647992E-01
C38  4.527689693439E-01  4.289322917976E-01 -3.984668647992E-01
C39  4.908468692485E-01 -3.145041343823E-01  3.266396678887E-01
C40 -4.908468692485E-01  3.145041343823E-01 -3.266396678887E-01
C41 -4.903337830371E-01 -4.134099682385E-01  2.408117064323E-01
C42  4.903337830371E-01  4.134099682385E-01 -2.408117064323E-01
C43  4.544417179778E-01 -2.999202800981E-01  1.669481148933E-01
C44 -4.544417179778E-01  2.999202800981E-01 -1.669481148933E-01
C45  4.757966322529E-01 -3.969685375035E-01  8.304310369633E-02
C46 -4.757966322529E-01  3.969685375035E-01 -8.304310369633E-02
C47  4.220183082459E-01 -2.822703053449E-01  8.465079645349E-03
C48 -4.220183082459E-01  2.822703053449E-01 -8.465079645349E-03
C49 -4.444465051085E-01  3.788845788819E-01  7.429169227510E-02
C50  4.444465051085E-01 -3.788845788819E-01 -7.429169227510E-02
C51 -3.897059542053E-01  2.646867200579E-01  1.500891526931E-01
C52  3.897059542053E-01 -2.646867200579E-01 -1.500891526931E-01
C53 -4.105620485284E-01  3.626310073741E-01  2.321525332924E-01
C54  4.105620485284E-01 -3.626310073741E-01 -2.321525332924E-01
C55 -3.526637975302E-01  2.494759626347E-01  3.099413301624E-01
C56  3.526637975302E-01 -2.494759626347E-01 -3.099413301624E-01
C57 -3.733482999765E-01  3.500261549818E-01  3.900641483574E-01
C58  3.733482999765E-01 -3.500261549818E-01 -3.900641483574E-01
H59 -4.673842346193E-01 -3.502921247799E-01  4.640096424992E-01
H60  4.673842346193E-01  3.502921247799E-01 -4.640096424992E-01
H61  4.304831953344E-01 -1.442980608652E-01  3.334844608818E-01
H62 -4.304831953344E-01  1.442980608652E-01 -3.334844608818E-01
H63  3.934399682909E-01 -1.298404560161E-01  1.735960964316E-01
H64 -3.934399682909E-01  1.298404560161E-01 -1.735960964316E-01
H65  3.607897371363E-01 -1.123183054559E-01  1.512865908334E-02
H66 -3.607897371363E-01  1.123183054559E-01 -1.512865908334E-02
H67 -3.282831488078E-01  9.479760898293E-02  1.435068292067E-01
H68  3.282831488078E-01 -9.479760898293E-02 -1.435068292067E-01
H69 -2.902537446095E-01  8.034899235580E-02  3.036619784076E-01
H70  2.902537446095E-01 -8.034899235580E-02 -3.036619784076E-01
H71 -3.281328365540E-01  2.620363845149E-01  4.494075170130E-01
H72  3.281328365540E-01 -2.620363845149E-01 -4.494075170130E-01


#===END

data_OPT_STEP_55

_symmetry_space_group_name_H-M 'P 1'
_cell_length_a      7.98683914
_cell_length_b      6.07688882
_cell_length_c     16.07671496
_cell_angle_alpha  101.636966
_cell_angle_beta  112.811784
_cell_angle_gamma   85.844354

loop_
_atom_site_label
_atom_site_fract_x
_atom_site_fract_y
_atom_site_fract_z
C1  1.237987404028E-01  4.093635880671E-02  4.084584846728E-01
C2 -1.237987404028E-01 -4.093635880671E-02 -4.084584846728E-01
C3 -2.428144766188E-02 -2.681353243874E-01  2.808315950155E-01
C4  2.428144766188E-02  2.681353243874E-01 -2.808315950155E-01
C5  3.547502420527E-02 -1.770777697003E-01  3.731959082825E-01
C6 -3.547502420527E-02  1.770777697003E-01 -3.731959082825E-01
C7  1.495738028856E-01  1.609630149950E-01  3.502121480526E-01
C8 -1.495738028856E-01 -1.609630149950E-01 -3.502121480526E-01
C9  9.119783012200E-02  7.080872221314E-02  2.525571150222E-01
C10 -9.119783012200E-02 -7.080872221314E-02 -2.525571150222E-01
C11  1.191298295839E-01  1.875841301662E-01  1.922077605752E-01
C12 -1.191298295839E-01 -1.875841301662E-01 -1.922077605752E-01
C13  6.064540159889E-02  9.708328919706E-02  9.610633953503E-02
C14 -6.064540159889E-02 -9.708328919706E-02 -9.610633953503E-02
C15  8.834163466556E-02  2.136355594029E-01  3.461873924764E-02
C16 -8.834163466556E-02 -2.136355594029E-01 -3.461873924764E-02
C17 -2.976935742616E-02 -1.229030092453E-01  6.048576483368E-02
C18  2.976935742616E-02  1.229030092453E-01 -6.048576483368E-02
C19 -5.676977477454E-02 -2.400110708688E-01  1.229556169938E-01
C20  5.676977477454E-02  2.400110708688E-01 -1.229556169938E-01
C21  1.749396591782E-03 -1.494172671320E-01  2.170279219183E-01
C22 -1.749396591782E-03  1.494172671320E-01 -2.170279219183E-01
H23  1.702076311750E-01  1.116070448983E-01  4.832924663132E-01
H24 -1.702076311750E-01 -1.116070448983E-01 -4.832924663132E-01
H25 -9.324141693797E-02 -4.347889256376E-01  2.536117078737E-01
H26  9.324141693797E-02  4.347889256376E-01 -2.536117078737E-01
H27  1.475637223849E-02 -2.709218239069E-01  4.212022042702E-01
H28 -1.475637223849E-02  2.709218239069E-01 -4.212022042702E-01
H29  2.149160738141E-01  3.301036555622E-01  3.765386357623E-01
H30 -2.149160738141E-01 -3.301036555622E-01 -3.765386357623E-01
H31  1.885535640113E-01  3.543192469232E-01  2.193080433398E-01
H32 -1.885535640113E-01 -3.543192469232E-01 -2.193080433398E-01
H33  1.573965570490E-01  3.805693729172E-01  6.165811091049E-02
H34 -1.573965570490E-01 -3.805693729172E-01 -6.165811091049E-02
H35 -1.252709872920E-01 -4.072669786856E-01  9.587583201676E-02
H36  1.252709872920E-01  4.072669786856E-01 -9.587583201676E-02
C37 -4.527096111109E-01 -4.288767517607E-01  3.985013668111E-01
C38  4.527096111109E-01  4.288767517607E-01 -3.985013668111E-01
C39  4.909054439331E-01 -3.144592334155E-01  3.266743524323E-01
C40 -4.909054439331E-01  3.144592334155E-01 -3.266743524323E-01
C41 -4.902704433681E-01 -4.133599176406E-01  2.408395156476E-01
C42  4.902704433681E-01  4.133599176406E-01 -2.408395156476E-01
C43  4.544951612409E-01 -2.998877459794E-01  1.669739382909E-01
C44 -4.544951612409E-01  2.998877459794E-01 -1.669739382909E-01
C45  4.758180625271E-01 -3.969564293294E-01  8.305442744176E-02
C46 -4.758180625271E-01  3.969564293294E-01 -8.305442744176E-02
C47  4.220439294296E-01 -2.822669647882E-01  8.476880200199E-03
C48 -4.220439294296E-01  2.822669647882E-01 -8.476880200199E-03
C49 -4.444561750326E-01  3.788918198920E-01  7.429044844766E-02
C50  4.444561750326E-01 -3.788918198920E-01 -7.429044844766E-02
C51 -3.897243702108E-01  2.647002921064E-01  1.500873584425E-01
C52  3.897243702108E-01 -2.647002921064E-01 -1.500873584425E-01
C53 -4.105460129753E-01  3.626663808185E-01  2.321639972012E-01
C54  4.105460129753E-01 -3.626663808185E-01 -2.321639972012E-01
C55 -3.526420429552E-01  2.495214247394E-01  3.099547878143E-01
C56  3.526420429552E-01 -2.495214247394E-01 -3.099547878143E-01
C57 -3.732905933933E-01  3.500937749403E-01  3.900901333671E-01
C58  3.732905933933E-01 -3.500937749403E-01 -3.900901333671E-01
H59 -4.673115019495E-01 -3.502344386581E-01  4.640518768594E-01
H60  4.673115019495E-01  3.502344386581E-01 -4.640518768594E-01
H61  4.305664628499E-01 -1.442481247641E-01  3.335285364572E-01
H62 -4.305664628499E-01  1.442481247641E-01 -3.335285364572E-01
H63  3.935054505207E-01 -1.298077821370E-01  1.736283463619E-01
H64 -3.935054505207E-01  1.298077821370E-01 -1.736283463619E-01
H65  3.608580238177E-01 -1.122992210388E-01  1.515349635138E-02
H66 -3.608580238177E-01  1.122992210388E-01 -1.515349635138E-02
H67 -3.283156653318E-01  9.480821786061E-02  1.434987017946E-01
H68  3.283156653318E-01 -9.480821786061E-02 -1.434987017946E-01
H69 -2.902745268284E-01  8.037623477873E-02  3.036616156134E-01
H70  2.902745268284E-01 -8.037623477873E-02 -3.036616156134E-01
H71 -3.280934351579E-01  2.621038688210E-01  4.494316040782E-01
H72  3.280934351579E-01 -2.621038688210E-01 -4.494316040782E-01


#===END

data_OPT_STEP_56

_symmetry_space_group_name_H-M 'P 1'
_cell_length_a      7.98438057
_cell_length_b      6.07756584
_cell_length_c     16.07562465
_cell_angle_alpha  101.635282
_cell_angle_beta  112.799671
_cell_angle_gamma   85.846290

loop_
_atom_site_label
_atom_site_fract_x
_atom_site_fract_y
_atom_site_fract_z
C1  1.237612750226E-01  4.093720253807E-02  4.084654029072E-01
C2 -1.237612750226E-01 -4.093720253807E-02 -4.084654029072E-01
C3 -2.424992489239E-02 -2.681480879756E-01  2.808549937795E-01
C4  2.424992489239E-02  2.681480879756E-01 -2.808549937795E-01
C5  3.548535925866E-02 -1.770893144817E-01  3.732155587717E-01
C6 -3.548535925866E-02  1.770893144817E-01 -3.732155587717E-01
C7  1.495342868125E-01  1.609604274474E-01  3.502115032954E-01
C8 -1.495342868125E-01 -1.609604274474E-01 -3.502115032954E-01
C9  9.117905620541E-02  7.080866562212E-02  2.525599319178E-01
C10 -9.117905620541E-02 -7.080866562212E-02 -2.525599319178E-01
C11  1.190884639465E-01  1.875915912086E-01  1.922005220111E-01
C12 -1.190884639465E-01 -1.875915912086E-01 -1.922005220111E-01
C13  6.062153149742E-02  9.708858212396E-02  9.610248420404E-02
C14 -6.062153149742E-02 -9.708858212396E-02 -9.610248420404E-02
C15  8.829908719554E-02  2.136466572132E-01  3.460535976776E-02
C16 -8.829908719554E-02 -2.136466572132E-01 -3.460535976776E-02
C17 -2.975090929834E-02 -1.229077207643E-01  6.049522788859E-02
C18  2.975090929834E-02  1.229077207643E-01 -6.049522788859E-02
C19 -5.673468480042E-02 -2.400198660734E-01  1.229745867797E-01
C20  5.673468480042E-02  2.400198660734E-01 -1.229745867797E-01
C21  1.766090445117E-03 -1.494240622836E-01  2.170429792963E-01
C22 -1.766090445117E-03  1.494240622836E-01 -2.170429792963E-01
H23  1.701522670481E-01  1.116073498703E-01  4.832962646165E-01
H24 -1.701522670481E-01 -1.116073498703E-01 -4.832962646165E-01
H25 -9.317187169310E-02 -4.348145271515E-01  2.536445418869E-01
H26  9.317187169310E-02  4.348145271515E-01 -2.536445418869E-01
H27  1.479004426967E-02 -2.709471085018E-01  4.212282037025E-01
H28 -1.479004426967E-02  2.709471085018E-01 -4.212282037025E-01
H29  2.148218339853E-01  3.301214329349E-01  3.765286111525E-01
H30 -2.148218339853E-01 -3.301214329349E-01 -3.765286111525E-01
H31  1.884768000148E-01  3.543387357810E-01  2.192884823448E-01
H32 -1.884768000148E-01 -3.543387357810E-01 -2.192884823448E-01
H33  1.573294799630E-01  3.805844341106E-01  6.163496839064E-02
H34 -1.573294799630E-01 -3.805844341106E-01 -6.163496839064E-02
H35 -1.252000219983E-01 -4.072871148674E-01  9.590550194653E-02
H36  1.252000219983E-01  4.072871148674E-01 -9.590550194653E-02
C37 -4.526777768663E-01 -4.288299911843E-01  3.985306868613E-01
C38  4.526777768663E-01  4.288299911843E-01 -3.985306868613E-01
C39  4.909434115986E-01 -3.144203647296E-01  3.267054228781E-01
C40 -4.909434115986E-01  3.144203647296E-01 -3.267054228781E-01
C41 -4.902602377211E-01 -4.133354683615E-01  2.408576593369E-01
C42  4.902602377211E-01  4.133354683615E-01 -2.408576593369E-01
C43  4.545071829189E-01 -2.998757497360E-01  1.669917189192E-01
C44 -4.545071829189E-01  2.998757497360E-01 -1.669917189192E-01
C45  4.758291168876E-01 -3.969472270337E-01  8.306448049556E-02
C46 -4.758291168876E-01  3.969472270337E-01 -8.306448049556E-02
C47  4.220676440467E-01 -2.822659174655E-01  8.488532313884E-03
C48 -4.220676440467E-01  2.822659174655E-01 -8.488532313884E-03
C49 -4.444653074191E-01  3.789026606016E-01  7.428943324365E-02
C50  4.444653074191E-01 -3.789026606016E-01 -7.428943324365E-02
C51 -3.897334234239E-01  2.647257248380E-01  1.500863968552E-01
C52  3.897334234239E-01 -2.647257248380E-01 -1.500863968552E-01
C53 -4.105510883516E-01  3.626958252289E-01  2.321714647665E-01
C54  4.105510883516E-01 -3.626958252289E-01 -2.321714647665E-01
C55 -3.526513729556E-01  2.495584324281E-01  3.099603654224E-01
C56  3.526513729556E-01 -2.495584324281E-01 -3.099603654224E-01
C57 -3.732966622358E-01  3.501311566331E-01  3.901040476911E-01
C58  3.732966622358E-01 -3.501311566331E-01 -3.901040476911E-01
H59 -4.672807163810E-01 -3.501872594051E-01  4.640870435377E-01
H60  4.672807163810E-01  3.501872594051E-01 -4.640870435377E-01
H61  4.306113279059E-01 -1.442148151975E-01  3.335671989536E-01
H62 -4.306113279059E-01  1.442148151975E-01 -3.335671989536E-01
H63  3.935487330497E-01 -1.297882279074E-01  1.736572603713E-01
H64 -3.935487330497E-01  1.297882279074E-01 -1.736572603713E-01
H65  3.608772244282E-01 -1.123094502014E-01  1.516963739669E-02
H66 -3.608772244282E-01  1.123094502014E-01 -1.516963739669E-02
H67 -3.283505614898E-01  9.482907299438E-02  1.434877919518E-01
H68  3.283505614898E-01 -9.482907299438E-02 -1.434877919518E-01
H69 -2.902960728804E-01  8.041635902473E-02  3.036585515652E-01
H70  2.902960728804E-01 -8.041635902473E-02 -3.036585515652E-01
H71 -3.281002574570E-01  2.621473258081E-01  4.494437919212E-01
H72  3.281002574570E-01 -2.621473258081E-01 -4.494437919212E-01


#===END

data_OPT_STEP_57

_symmetry_space_group_name_H-M 'P 1'
_cell_length_a      7.98212171
_cell_length_b      6.07845786
_cell_length_c     16.07477370
_cell_angle_alpha  101.636549
_cell_angle_beta  112.784976
_cell_angle_gamma   85.847383

loop_
_atom_site_label
_atom_site_fract_x
_atom_site_fract_y
_atom_site_fract_z
C1  1.237598109581E-01  4.094102782940E-02  4.084678551782E-01
C2 -1.237598109581E-01 -4.094102782940E-02 -4.084678551782E-01
C3 -2.421250078927E-02 -2.681322946138E-01  2.808746450347E-01
C4  2.421250078927E-02  2.681322946138E-01 -2.808746450347E-01
C5  3.551569103838E-02 -1.770805716544E-01  3.732307963506E-01
C6 -3.551569103838E-02  1.770805716544E-01 -3.732307963506E-01
C7  1.495058183015E-01  1.609690776582E-01  3.502065458185E-01
C8 -1.495058183015E-01 -1.609690776582E-01 -3.502065458185E-01
C9  9.117300330341E-02  7.081436660363E-02  2.525598582322E-01
C10 -9.117300330341E-02 -7.081436660363E-02 -2.525598582322E-01
C11  1.190720497893E-01  1.875872606682E-01  1.921921640729E-01
C12 -1.190720497893E-01 -1.875872606682E-01 -1.921921640729E-01
C13  6.061796852184E-02  9.708404152067E-02  9.609891103963E-02
C14 -6.061796852184E-02 -9.708404152067E-02 -9.609891103963E-02
C15  8.827674774119E-02  2.136371373692E-01  3.459257677153E-02
C16 -8.827674774119E-02 -2.136371373692E-01 -3.459257677153E-02
C17 -2.972899618551E-02 -1.229055072714E-01  6.050367690617E-02
C18  2.972899618551E-02  1.229055072714E-01 -6.050367690617E-02
C19 -5.669371780374E-02 -2.400129378807E-01  1.229919683262E-01
C20  5.669371780374E-02  2.400129378807E-01 -1.229919683262E-01
C21  1.787981284005E-03 -1.494120194273E-01  2.170554919729E-01
C22 -1.787981284005E-03  1.494120194273E-01 -2.170554919729E-01
H23  1.701366580617E-01  1.116118366707E-01  4.832947846254E-01
H24 -1.701366580617E-01 -1.116118366707E-01 -4.832947846254E-01
H25 -9.310885624243E-02 -4.347977027748E-01  2.536735654954E-01
H26  9.310885624243E-02  4.347977027748E-01 -2.536735654954E-01
H27  1.482946307886E-02 -2.709373908622E-01  4.212477850090E-01
H28 -1.482946307886E-02  2.709373908622E-01 -4.212477850090E-01
H29  2.147676427546E-01  3.301237791228E-01  3.765147588247E-01
H30 -2.147676427546E-01 -3.301237791228E-01 -3.765147588247E-01
H31  1.884363727248E-01  3.543322115494E-01  2.192693578365E-01
H32 -1.884363727248E-01 -3.543322115494E-01 -2.192693578365E-01
H33  1.572828308550E-01  3.805725738705E-01  6.161119050259E-02
H34 -1.572828308550E-01 -3.805725738705E-01 -6.161119050259E-02
H35 -1.251542019769E-01 -4.072652032215E-01  9.593245259887E-02
H36  1.251542019769E-01  4.072652032215E-01 -9.593245259887E-02
C37 -4.526555402478E-01 -4.288323312706E-01  3.985475224770E-01
C38  4.526555402478E-01  4.288323312706E-01 -3.985475224770E-01
C39  4.909681470463E-01 -3.144313622746E-01  3.267297470915E-01
C40 -4.909681470463E-01  3.144313622746E-01 -3.267297470915E-01
C41 -4.902456573993E-01 -4.133401893309E-01  2.408718450372E-01
C42  4.902456573993E-01  4.133401893309E-01 -2.408718450372E-01
C43  4.545328372251E-01 -2.998825094874E-01  1.670149878719E-01
C44 -4.545328372251E-01  2.998825094874E-01 -1.670149878719E-01
C45  4.758402204316E-01 -3.969512052531E-01  8.307604141142E-02
C46 -4.758402204316E-01  3.969512052531E-01 -8.307604141142E-02
C47  4.220740767106E-01 -2.822824717663E-01  8.505778158886E-03
C48 -4.220740767106E-01  2.822824717663E-01 -8.505778158886E-03
C49 -4.444652005497E-01  3.789130228884E-01  7.428247594374E-02
C50  4.444652005497E-01 -3.789130228884E-01 -7.428247594374E-02
C51 -3.897391086745E-01  2.647423886086E-01  1.500719161218E-01
C52  3.897391086745E-01 -2.647423886086E-01 -1.500719161218E-01
C53 -4.105475087405E-01  3.627064512964E-01  2.321670793090E-01
C54  4.105475087405E-01 -3.627064512964E-01 -2.321670793090E-01
C55 -3.526540965717E-01  2.495743864979E-01  3.099482171754E-01
C56  3.526540965717E-01 -2.495743864979E-01 -3.099482171754E-01
C57 -3.732863110183E-01  3.501431301128E-01  3.901025277919E-01
C58  3.732863110183E-01 -3.501431301128E-01 -3.901025277919E-01
H59 -4.672615026323E-01 -3.501920124694E-01  4.641092512641E-01
H60  4.672615026323E-01  3.501920124694E-01 -4.641092512641E-01
H61  4.306458664601E-01 -1.442360217344E-01  3.336061073955E-01
H62 -4.306458664601E-01  1.442360217344E-01 -3.336061073955E-01
H63  3.935679958322E-01 -1.298135608132E-01  1.736923687981E-01
H64 -3.935679958322E-01  1.298135608132E-01 -1.736923687981E-01
H65  3.608963975023E-01 -1.123342823026E-01  1.520213444284E-02
H66 -3.608963975023E-01  1.123342823026E-01 -1.520213444284E-02
H67 -3.283586666868E-01  9.486090540692E-02  1.434598654826E-01
H68  3.283586666868E-01 -9.486090540692E-02 -1.434598654826E-01
H69 -2.903047914501E-01  8.044486836608E-02  3.036329429684E-01
H70  2.903047914501E-01 -8.044486836608E-02 -3.036329429684E-01
H71 -3.281036634436E-01  2.621565884309E-01  4.494337974103E-01
H72  3.281036634436E-01 -2.621565884309E-01 -4.494337974103E-01


#===END

data_OPT_STEP_58

_symmetry_space_group_name_H-M 'P 1'
_cell_length_a      7.97764714
_cell_length_b      6.08045488
_cell_length_c     16.07331838
_cell_angle_alpha  101.634468
_cell_angle_beta  112.757295
_cell_angle_gamma   85.851561

loop_
_atom_site_label
_atom_site_fract_x
_atom_site_fract_y
_atom_site_fract_z
C1  1.237610681791E-01  4.095169643639E-02  4.084688768289E-01
C2 -1.237610681791E-01 -4.095169643639E-02 -4.084688768289E-01
C3 -2.413950983550E-02 -2.680790654165E-01  2.809165862642E-01
C4  2.413950983550E-02  2.680790654165E-01 -2.809165862642E-01
C5  3.556376385020E-02 -1.770382536712E-01  3.732609871235E-01
C6 -3.556376385020E-02  1.770382536712E-01 -3.732609871235E-01
C7  1.494749487214E-01  1.609684508705E-01  3.501917395088E-01
C8 -1.494749487214E-01 -1.609684508705E-01 -3.501917395088E-01
C9  9.115399128519E-02  7.083156360794E-02  2.525555044673E-01
C10 -9.115399128519E-02 -7.083156360794E-02 -2.525555044673E-01
C11  1.190176878388E-01  1.875868856898E-01  1.921678635917E-01
C12 -1.190176878388E-01 -1.875868856898E-01 -1.921678635917E-01
C13  6.058122420825E-02  9.709149293403E-02  9.608661925817E-02
C14 -6.058122420825E-02 -9.709149293403E-02 -9.608661925817E-02
C15  8.821908276780E-02  2.136136318966E-01  3.456042741270E-02
C16 -8.821908276780E-02 -2.136136318966E-01 -3.456042741270E-02
C17 -2.970801656265E-02 -1.228743179226E-01  6.052289002709E-02
C18  2.970801656265E-02  1.228743179226E-01 -6.052289002709E-02
C19 -5.664738922803E-02 -2.399570443267E-01  1.230292144292E-01
C20  5.664738922803E-02  2.399570443267E-01 -1.230292144292E-01
C21  1.823706301432E-03 -1.493684286052E-01  2.170813012754E-01
C22 -1.823706301432E-03  1.493684286052E-01 -2.170813012754E-01
H23  1.701358295530E-01  1.116018783804E-01  4.832872849694E-01
H24 -1.701358295530E-01 -1.116018783804E-01 -4.832872849694E-01
H25 -9.300662115905E-02 -4.347181148673E-01  2.537371059232E-01
H26  9.300662115905E-02  4.347181148673E-01 -2.537371059232E-01
H27  1.490328351620E-02 -2.708943301803E-01  4.212884281133E-01
H28 -1.490328351620E-02  2.708943301803E-01 -4.212884281133E-01
H29  2.146926102843E-01  3.301028488302E-01  3.764794193643E-01
H30 -2.146926102843E-01 -3.301028488302E-01 -3.764794193643E-01
H31  1.883572019692E-01  3.543005806132E-01  2.192209417457E-01
H32 -1.883572019692E-01 -3.543005806132E-01 -2.192209417457E-01
H33  1.571898211015E-01  3.805234933138E-01  6.155253667367E-02
H34 -1.571898211015E-01 -3.805234933138E-01 -6.155253667367E-02
H35 -1.250327822485E-01 -4.072107699295E-01  9.599780306506E-02
H36  1.250327822485E-01  4.072107699295E-01 -9.599780306506E-02
C37 -4.526000331730E-01 -4.288692180376E-01  3.985712601697E-01
C38  4.526000331730E-01  4.288692180376E-01 -3.985712601697E-01
C39  4.910257270851E-01 -3.144893704018E-01  3.267659137320E-01
C40 -4.910257270851E-01  3.144893704018E-01 -3.267659137320E-01
C41 -4.902130877669E-01 -4.133788925352E-01  2.408916701391E-01
C42  4.902130877669E-01  4.133788925352E-01 -2.408916701391E-01
C43  4.545517301984E-01 -2.999469434013E-01  1.670459477464E-01
C44 -4.545517301984E-01  2.999469434013E-01 -1.670459477464E-01
C45  4.758537197851E-01 -3.969822381003E-01  8.309275631237E-02
C46 -4.758537197851E-01  3.969822381003E-01 -8.309275631237E-02
C47  4.221025207847E-01 -2.823225148743E-01  8.537952717383E-03
C48 -4.221025207847E-01  2.823225148743E-01 -8.537952717383E-03
C49 -4.444743872340E-01  3.789260299925E-01  7.426723478372E-02
C50  4.444743872340E-01 -3.789260299925E-01 -7.426723478372E-02
C51 -3.897542194602E-01  2.647694861094E-01  1.500438124923E-01
C52  3.897542194602E-01 -2.647694861094E-01 -1.500438124923E-01
C53 -4.105460916286E-01  3.627060527714E-01  2.321545103022E-01
C54  4.105460916286E-01 -3.627060527714E-01 -2.321545103022E-01
C55 -3.526661555572E-01  2.495876234349E-01  3.099222759493E-01
C56  3.526661555572E-01 -2.495876234349E-01 -3.099222759493E-01
C57 -3.732745398430E-01  3.501361576549E-01  3.900935546802E-01
C58  3.732745398430E-01 -3.501361576549E-01 -3.900935546802E-01
H59 -4.672049288119E-01 -3.502393669177E-01  4.641396592131E-01
H60  4.672049288119E-01  3.502393669177E-01 -4.641396592131E-01
H61  4.307189177099E-01 -1.443277238758E-01  3.336652807836E-01
H62 -4.307189177099E-01  1.443277238758E-01 -3.336652807836E-01
H63  3.936301109605E-01 -1.298982693270E-01  1.737534501420E-01
H64 -3.936301109605E-01  1.298982693270E-01 -1.737534501420E-01
H65  3.609378660768E-01 -1.124101986784E-01  1.525920498591E-02
H66 -3.609378660768E-01  1.124101986784E-01 -1.525920498591E-02
H67 -3.283941000720E-01  9.491935691484E-02  1.434058285281E-01
H68  3.283941000720E-01 -9.491935691484E-02 -1.434058285281E-01
H69 -2.903507935432E-01  8.048014059682E-02  3.035813382765E-01
H70  2.903507935432E-01 -8.048014059682E-02 -3.035813382765E-01
H71 -3.281025889417E-01  2.621557699381E-01  4.494125663443E-01
H72  3.281025889417E-01 -2.621557699381E-01 -4.494125663443E-01


#===END

data_OPT_STEP_59

_symmetry_space_group_name_H-M 'P 1'
_cell_length_a      7.97397576
_cell_length_b      6.08089898
_cell_length_c     16.07173796
_cell_angle_alpha  101.634576
_cell_angle_beta  112.719478
_cell_angle_gamma   85.856957

loop_
_atom_site_label
_atom_site_fract_x
_atom_site_fract_y
_atom_site_fract_z
C1  1.237132252866E-01  4.095785491195E-02  4.084599934161E-01
C2 -1.237132252866E-01 -4.095785491195E-02 -4.084599934161E-01
C3 -2.405309309962E-02 -2.681304828100E-01  2.809568161182E-01
C4  2.405309309962E-02  2.681304828100E-01 -2.809568161182E-01
C5  3.561285775356E-02 -1.770790307252E-01  3.732849906658E-01
C6 -3.561285775356E-02  1.770790307252E-01 -3.732849906658E-01
C7  1.493992898205E-01  1.609975004748E-01  3.501677964915E-01
C8 -1.493992898205E-01 -1.609975004748E-01 -3.501677964915E-01
C9  9.116497430683E-02  7.081967230453E-02  2.525482554212E-01
C10 -9.116497430683E-02 -7.081967230453E-02 -2.525482554212E-01
C11  1.189832859586E-01  1.875984097898E-01  1.921406265451E-01
C12 -1.189832859586E-01 -1.875984097898E-01 -1.921406265451E-01
C13  6.058419253474E-02  9.708648407708E-02  9.607434993298E-02
C14 -6.058419253474E-02 -9.708648407708E-02 -9.607434993298E-02
C15  8.814361504293E-02  2.136553839551E-01  3.452438097353E-02
C16 -8.814361504293E-02 -2.136553839551E-01 -3.452438097353E-02
C17 -2.964484537561E-02 -1.229130085647E-01  6.054411905787E-02
C18  2.964484537561E-02  1.229130085647E-01 -6.054411905787E-02
C19 -5.652393552960E-02 -2.400253587973E-01  1.230723171937E-01
C20  5.652393552960E-02  2.400253587973E-01 -1.230723171937E-01
C21  1.922748871567E-03 -1.494290853021E-01  2.171089180610E-01
C22 -1.922748871567E-03  1.494290853021E-01 -2.171089180610E-01
H23  1.699998970774E-01  1.116558106659E-01  4.832637515945E-01
H24 -1.699998970774E-01 -1.116558106659E-01 -4.832637515945E-01
H25 -9.281442238086E-02 -4.348318455410E-01  2.538060358005E-01
H26  9.281442238086E-02  4.348318455410E-01 -2.538060358005E-01
H27  1.495314021576E-02 -2.709347938237E-01  4.213232939362E-01
H28 -1.495314021576E-02  2.709347938237E-01 -4.213232939362E-01
H29  2.145145460509E-01  3.301939825027E-01  3.764364032227E-01
H30 -2.145145460509E-01 -3.301939825027E-01 -3.764364032227E-01
H31  1.882499572801E-01  3.543540965263E-01  2.191635031871E-01
H32 -1.882499572801E-01 -3.543540965263E-01 -2.191635031871E-01
H33  1.570687151164E-01  3.805888804408E-01  6.148858925627E-02
H34 -1.570687151164E-01 -3.805888804408E-01 -6.148858925627E-02
H35 -1.249088603119E-01 -4.072742467596E-01  9.606498596107E-02
H36  1.249088603119E-01  4.072742467596E-01 -9.606498596107E-02
C37 -4.525221174641E-01 -4.288475593320E-01  3.986123767690E-01
C38  4.525221174641E-01  4.288475593320E-01 -3.986123767690E-01
C39  4.911413694844E-01 -3.144410278325E-01  3.268298524251E-01
C40 -4.911413694844E-01  3.144410278325E-01 -3.268298524251E-01
C41 -4.901361313890E-01 -4.133410902644E-01  2.409304708111E-01
C42  4.901361313890E-01  4.133410902644E-01 -2.409304708111E-01
C43  4.546566860983E-01 -2.998892240770E-01  1.671037534049E-01
C44 -4.546566860983E-01  2.998892240770E-01 -1.671037534049E-01
C45  4.759019666106E-01 -3.969524431547E-01  8.312136426708E-02
C46 -4.759019666106E-01  3.969524431547E-01 -8.312136426708E-02
C47  4.220758286023E-01 -2.823368710029E-01  8.565856356409E-03
C48 -4.220758286023E-01  2.823368710029E-01 -8.565856356409E-03
C49 -4.444372408133E-01  3.789473101126E-01  7.426030229001E-02
C50  4.444372408133E-01 -3.789473101126E-01 -7.426030229001E-02
C51 -3.896925700572E-01  2.648023703219E-01  1.500264722300E-01
C52  3.896925700572E-01 -2.648023703219E-01 -1.500264722300E-01
C53 -4.104663945512E-01  3.627467429870E-01  2.321584060997E-01
C54  4.104663945512E-01 -3.627467429870E-01 -2.321584060997E-01
C55 -3.525783597232E-01  2.496218393220E-01  3.099097390525E-01
C56  3.525783597232E-01 -2.496218393220E-01 -3.099097390525E-01
C57 -3.732035847976E-01  3.501536477305E-01  3.900966439082E-01
C58  3.732035847976E-01 -3.501536477305E-01 -3.900966439082E-01
H59 -4.671298432156E-01 -3.502172525535E-01  4.641962829258E-01
H60  4.671298432156E-01  3.502172525535E-01 -4.641962829258E-01
H61  4.308391428921E-01 -1.442769909520E-01  3.337578018685E-01
H62 -4.308391428921E-01  1.442769909520E-01 -3.337578018685E-01
H63  3.937243524009E-01 -1.298453750349E-01  1.738347566526E-01
H64 -3.937243524009E-01  1.298453750349E-01 -1.738347566526E-01
H65  3.609449663988E-01 -1.124063087010E-01  1.531757184730E-02
H66 -3.609449663988E-01  1.124063087010E-01 -1.531757184730E-02
H67 -3.283367939275E-01  9.495234324418E-02  1.433622269278E-01
H68  3.283367939275E-01 -9.495234324418E-02 -1.433622269278E-01
H69 -2.902781864507E-01  8.050604673909E-02  3.035393285604E-01
H70  2.902781864507E-01 -8.050604673909E-02 -3.035393285604E-01
H71 -3.280522452889E-01  2.621507790174E-01  4.493968412401E-01
H72  3.280522452889E-01 -2.621507790174E-01 -4.493968412401E-01


#===END

data_OPT_STEP_60

_symmetry_space_group_name_H-M 'P 1'
_cell_length_a      7.97281744
_cell_length_b      6.08137866
_cell_length_c     16.07147901
_cell_angle_alpha  101.632020
_cell_angle_beta  112.714037
_cell_angle_gamma   85.858164

loop_
_atom_site_label
_atom_site_fract_x
_atom_site_fract_y
_atom_site_fract_z
C1  1.237173091306E-01  4.095690077597E-02  4.084591007002E-01
C2 -1.237173091306E-01 -4.095690077597E-02 -4.084591007002E-01
C3 -2.403896685703E-02 -2.681172074299E-01  2.809687321889E-01
C4  2.403896685703E-02  2.681172074299E-01 -2.809687321889E-01
C5  3.562446924259E-02 -1.770690369169E-01  3.732933456806E-01
C6 -3.562446924259E-02  1.770690369169E-01 -3.732933456806E-01
C7  1.493994199153E-01  1.609889128429E-01  3.501617348191E-01
C8 -1.493994199153E-01 -1.609889128429E-01 -3.501617348191E-01
C9  9.115947478289E-02  7.082050342943E-02  2.525455202943E-01
C10 -9.115947478289E-02 -7.082050342943E-02 -2.525455202943E-01
C11  1.189796442734E-01  1.875874403834E-01  1.921327505566E-01
C12 -1.189796442734E-01 -1.875874403834E-01 -1.921327505566E-01
C13  6.057893158665E-02  9.708290704350E-02  9.607003611533E-02
C14 -6.057893158665E-02 -9.708290704350E-02 -9.607003611533E-02
C15  8.814151014498E-02  2.136397640171E-01  3.451607977858E-02
C16 -8.814151014498E-02 -2.136397640171E-01 -3.451607977858E-02
C17 -2.963520598352E-02 -1.229087366936E-01  6.054934697417E-02
C18  2.963520598352E-02  1.229087366936E-01 -6.054934697417E-02
C19 -5.650579510349E-02 -2.400189049439E-01  1.230824971244E-01
C20  5.650579510349E-02  2.400189049439E-01 -1.230824971244E-01
C21  1.918192702078E-03 -1.494121655839E-01  2.171151340967E-01
C22 -1.918192702078E-03  1.494121655839E-01 -2.171151340967E-01
H23  1.700198918833E-01  1.116386739584E-01  4.832609349676E-01
H24 -1.700198918833E-01 -1.116386739584E-01 -4.832609349676E-01
H25 -9.280169002435E-02 -4.348053685427E-01  2.538243999547E-01
H26  9.280169002435E-02  4.348053685427E-01 -2.538243999547E-01
H27  1.497472220252E-02 -2.709257291283E-01  4.213354394093E-01
H28 -1.497472220252E-02  2.709257291283E-01 -4.213354394093E-01
H29  2.145147337996E-01  3.301703366992E-01  3.764216757376E-01
H30 -2.145147337996E-01 -3.301703366992E-01 -3.764216757376E-01
H31  1.882332255489E-01  3.543398421957E-01  2.191481211797E-01
H32 -1.882332255489E-01 -3.543398421957E-01 -2.191481211797E-01
H33  1.570456981432E-01  3.805750697886E-01  6.147187884965E-02
H34 -1.570456981432E-01 -3.805750697886E-01 -6.147187884965E-02
H35 -1.248974361391E-01 -4.072512213275E-01  9.608155836083E-02
H36  1.248974361391E-01  4.072512213275E-01 -9.608155836083E-02
C37 -4.525165650774E-01 -4.288501547462E-01  3.986153841356E-01
C38  4.525165650774E-01  4.288501547462E-01 -3.986153841356E-01
C39  4.911285424392E-01 -3.144597398732E-01  3.268302746600E-01
C40 -4.911285424392E-01  3.144597398732E-01 -3.268302746600E-01
C41 -4.901456221364E-01 -4.133511137390E-01  2.409305409448E-01
C42  4.901456221364E-01  4.133511137390E-01 -2.409305409448E-01
C43  4.546474084962E-01 -2.999061675641E-01  1.671040094281E-01
C44 -4.546474084962E-01  2.999061675641E-01 -1.671040094281E-01
C45  4.758955755918E-01 -3.969628955604E-01  8.312119829483E-02
C46 -4.758955755918E-01  3.969628955604E-01 -8.312119829483E-02
C47  4.220930874168E-01 -2.823415738724E-01  8.570265147086E-03
C48 -4.220930874168E-01  2.823415738724E-01 -8.570265147086E-03
C49 -4.444482675862E-01  3.789493038963E-01  7.425806820261E-02
C50  4.444482675862E-01 -3.789493038963E-01 -7.425806820261E-02
C51 -3.897151726929E-01  2.648064790330E-01  1.500216446968E-01
C52  3.897151726929E-01 -2.648064790330E-01 -1.500216446968E-01
C53 -4.104879383459E-01  3.627436150359E-01  2.321549551460E-01
C54  4.104879383459E-01 -3.627436150359E-01 -2.321549551460E-01
C55 -3.526039250436E-01  2.496248807094E-01  3.099049678272E-01
C56  3.526039250436E-01 -2.496248807094E-01 -3.099049678272E-01
C57 -3.732068054074E-01  3.501606633792E-01  3.900965755550E-01
C58  3.732068054074E-01 -3.501606633792E-01 -3.900965755550E-01
H59 -4.671181075273E-01 -3.502237563817E-01  4.642007498831E-01
H60  4.671181075273E-01  3.502237563817E-01 -4.642007498831E-01
H61  4.308438301816E-01 -1.442975834945E-01  3.337628493196E-01
H62 -4.308438301816E-01  1.442975834945E-01 -3.337628493196E-01
H63  3.937134259360E-01 -1.298735162170E-01  1.738360715366E-01
H64 -3.937134259360E-01  1.298735162170E-01 -1.738360715366E-01
H65  3.609566661158E-01 -1.124244386506E-01  1.532232364035E-02
H66 -3.609566661158E-01  1.124244386506E-01 -1.532232364035E-02
H67 -3.283733775208E-01  9.495887631153E-02  1.433536727016E-01
H68  3.283733775208E-01 -9.495887631153E-02 -1.433536727016E-01
H69 -2.903022234226E-01  8.052058684065E-02  3.035336964409E-01
H70  2.903022234226E-01 -8.052058684065E-02 -3.035336964409E-01
H71 -3.280501510621E-01  2.621647117043E-01  4.493970201965E-01
H72  3.280501510621E-01 -2.621647117043E-01 -4.493970201965E-01


#===END

data_OPT_STEP_61

_symmetry_space_group_name_H-M 'P 1'
_cell_length_a      7.97213888
_cell_length_b      6.08162183
_cell_length_c     16.07116812
_cell_angle_alpha  101.630273
_cell_angle_beta  112.705205
_cell_angle_gamma   85.859714

loop_
_atom_site_label
_atom_site_fract_x
_atom_site_fract_y
_atom_site_fract_z
C1  1.237539409124E-01  4.096118255866E-02  4.084588584944E-01
C2 -1.237539409124E-01 -4.096118255866E-02 -4.084588584944E-01
C3 -2.402561698624E-02 -2.680886373798E-01  2.809852208979E-01
C4  2.402561698624E-02  2.680886373798E-01 -2.809852208979E-01
C5  3.564696789828E-02 -1.770459205077E-01  3.733053814863E-01
C6 -3.564696789828E-02  1.770459205077E-01 -3.733053814863E-01
C7  1.494187725310E-01  1.609928865607E-01  3.501541756368E-01
C8 -1.494187725310E-01 -1.609928865607E-01 -3.501541756368E-01
C9  9.115785067967E-02  7.083558956522E-02  2.525421987221E-01
C10 -9.115785067967E-02 -7.083558956522E-02 -2.525421987221E-01
C11  1.189785199949E-01  1.875910855611E-01  1.921225894498E-01
C12 -1.189785199949E-01 -1.875910855611E-01 -1.921225894498E-01
C13  6.057219246005E-02  9.708841886627E-02  9.606468082001E-02
C14 -6.057219246005E-02 -9.708841886627E-02 -9.606468082001E-02
C15  8.814270953686E-02  2.136273218042E-01  3.450465979043E-02
C16 -8.814270953686E-02 -2.136273218042E-01 -3.450465979043E-02
C17 -2.964054858427E-02 -1.228917666502E-01  6.055605353484E-02
C18  2.964054858427E-02  1.228917666502E-01 -6.055605353484E-02
C19 -5.652204792270E-02 -2.399841139007E-01  1.230948305690E-01
C20  5.652204792270E-02  2.399841139007E-01 -1.230948305690E-01
C21  1.909514467213E-03 -1.493802013927E-01  2.171233124731E-01
C22 -1.909514467213E-03  1.493802013927E-01 -2.171233124731E-01
H23  1.700828307089E-01  1.116263986025E-01  4.832580408311E-01
H24 -1.700828307089E-01 -1.116263986025E-01 -4.832580408311E-01
H25 -9.281180231146E-02 -4.347528245310E-01  2.538482410258E-01
H26  9.281180231146E-02  4.347528245310E-01 -2.538482410258E-01
H27  1.500657392171E-02 -2.709079909205E-01  4.213514503216E-01
H28 -1.500657392171E-02  2.709079909205E-01 -4.213514503216E-01
H29  2.145632614490E-01  3.301419828967E-01  3.764026004825E-01
H30 -2.145632614490E-01 -3.301419828967E-01 -3.764026004825E-01
H31  1.882435933771E-01  3.543268333500E-01  2.191295177063E-01
H32 -1.882435933771E-01 -3.543268333500E-01 -2.191295177063E-01
H33  1.570510385362E-01  3.805509378229E-01  6.145109615862E-02
H34 -1.570510385362E-01 -3.805509378229E-01 -6.145109615862E-02
H35 -1.248747339414E-01 -4.072321297288E-01  9.610587125650E-02
H36  1.248747339414E-01  4.072321297288E-01 -9.610587125650E-02
C37 -4.525054784093E-01 -4.288702892146E-01  3.986145364137E-01
C38  4.525054784093E-01  4.288702892146E-01 -3.986145364137E-01
C39  4.911162299873E-01 -3.144951138500E-01  3.268284504731E-01
C40 -4.911162299873E-01  3.144951138500E-01 -3.268284504731E-01
C41 -4.901642727107E-01 -4.133835957437E-01  2.409264167291E-01
C42  4.901642727107E-01  4.133835957437E-01 -2.409264167291E-01
C43  4.546132568366E-01 -2.999468886071E-01  1.671014724811E-01
C44 -4.546132568366E-01  2.999468886071E-01 -1.671014724811E-01
C45  4.758802841217E-01 -3.969835967877E-01  8.312048561644E-02
C46 -4.758802841217E-01  3.969835967877E-01 -8.312048561644E-02
C47  4.221051111531E-01 -2.823445447949E-01  8.578489040654E-03
C48 -4.221051111531E-01  2.823445447949E-01 -8.578489040654E-03
C49 -4.444651095306E-01  3.789383250025E-01  7.425089522818E-02
C50  4.444651095306E-01 -3.789383250025E-01 -7.425089522818E-02
C51 -3.897468098608E-01  2.647872984948E-01  1.500086652817E-01
C52  3.897468098608E-01 -2.647872984948E-01 -1.500086652817E-01
C53 -4.105117545526E-01  3.627176927623E-01  2.321446023730E-01
C54  4.105117545526E-01 -3.627176927623E-01 -2.321446023730E-01
C55 -3.526214337240E-01  2.496063147050E-01  3.098939197479E-01
C56  3.526214337240E-01 -2.496063147050E-01 -3.098939197479E-01
C57 -3.732051436419E-01  3.501451146781E-01  3.900900891679E-01
C58  3.732051436419E-01 -3.501451146781E-01 -3.900900891679E-01
H59 -4.671015210037E-01 -3.502462503489E-01  4.642002995280E-01
H60  4.671015210037E-01  3.502462503489E-01 -4.642002995280E-01
H61  4.308138802528E-01 -1.443489866377E-01  3.337616327252E-01
H62 -4.308138802528E-01  1.443489866377E-01 -3.337616327252E-01
H63  3.936928204355E-01 -1.299148736614E-01  1.738413846626E-01
H64 -3.936928204355E-01  1.299148736614E-01 -1.738413846626E-01
H65  3.609613634527E-01 -1.124383304698E-01  1.533507734951E-02
H66 -3.609613634527E-01  1.124383304698E-01 -1.533507734951E-02
H67 -3.283880993394E-01  9.495609053537E-02  1.433386804173E-01
H68  3.283880993394E-01 -9.495609053537E-02 -1.433386804173E-01
H69 -2.903250261768E-01  8.050647876918E-02  3.035177684261E-01
H70  2.903250261768E-01 -8.050647876918E-02 -3.035177684261E-01
H71 -3.280457863946E-01  2.621543092558E-01  4.493899076417E-01
H72  3.280457863946E-01 -2.621543092558E-01 -4.493899076417E-01


#===END

data_OPT_STEP_62

_symmetry_space_group_name_H-M 'P 1'
_cell_length_a      7.97094012
_cell_length_b      6.08205482
_cell_length_c     16.07064437
_cell_angle_alpha  101.627143
_cell_angle_beta  112.685163
_cell_angle_gamma   85.862452

loop_
_atom_site_label
_atom_site_fract_x
_atom_site_fract_y
_atom_site_fract_z
C1  1.237760148844E-01  4.097248267032E-02  4.084517717791E-01
C2 -1.237760148844E-01 -4.097248267032E-02 -4.084517717791E-01
C3 -2.397417359802E-02 -2.680673368070E-01  2.810135596588E-01
C4  2.397417359802E-02  2.680673368070E-01 -2.810135596588E-01
C5  3.567979180889E-02 -1.770181751823E-01  3.733219129550E-01
C6 -3.567979180889E-02  1.770181751823E-01 -3.733219129550E-01
C7  1.494470016051E-01  1.609828098342E-01  3.501359345325E-01
C8 -1.494470016051E-01 -1.609828098342E-01 -3.501359345325E-01
C9  9.117645827554E-02  7.083539110795E-02  2.525338444501E-01
C10 -9.117645827554E-02 -7.083539110795E-02 -2.525338444501E-01
C11  1.189769829791E-01  1.875848037144E-01  1.921005101322E-01
C12 -1.189769829791E-01 -1.875848037144E-01 -1.921005101322E-01
C13  6.056610557731E-02  9.708959542738E-02  9.605334409144E-02
C14 -6.056610557731E-02 -9.708959542738E-02 -9.605334409144E-02
C15  8.812672206244E-02  2.136125579447E-01  3.448003550638E-02
C16 -8.812672206244E-02 -2.136125579447E-01 -3.448003550638E-02
C17 -2.962840550142E-02 -1.228782603867E-01  6.056971335782E-02
C18  2.962840550142E-02  1.228782603867E-01 -6.056971335782E-02
C19 -5.649279781332E-02 -2.399618798242E-01  1.231214439576E-01
C20  5.649279781332E-02  2.399618798242E-01 -1.231214439576E-01
C21  1.942365783088E-03 -1.493649268305E-01  2.171393437700E-01
C22 -1.942365783088E-03  1.493649268305E-01 -2.171393437700E-01
H23  1.701079921679E-01  1.116304575473E-01  4.832426793145E-01
H24 -1.701079921679E-01 -1.116304575473E-01 -4.832426793145E-01
H25 -9.275978032937E-02 -4.347135378919E-01  2.538943760762E-01
H26  9.275978032937E-02  4.347135378919E-01 -2.538943760762E-01
H27  1.504551087572E-02 -2.708750044663E-01  4.213759806267E-01
H28 -1.504551087572E-02  2.708750044663E-01 -4.213759806267E-01
H29  2.145799660506E-01  3.301231459290E-01  3.763672699037E-01
H30 -2.145799660506E-01 -3.301231459290E-01 -3.763672699037E-01
H31  1.882394324521E-01  3.543026570280E-01  2.190886063887E-01
H32 -1.882394324521E-01 -3.543026570280E-01 -2.190886063887E-01
H33  1.570192944462E-01  3.805268293353E-01  6.140602063886E-02
H34 -1.570192944462E-01 -3.805268293353E-01 -6.140602063886E-02
H35 -1.248331207817E-01 -4.071994412468E-01  9.615181471485E-02
H36  1.248331207817E-01  4.071994412468E-01 -9.615181471485E-02
C37 -4.524608222260E-01 -4.289087139095E-01  3.986197576742E-01
C38  4.524608222260E-01  4.289087139095E-01 -3.986197576742E-01
C39  4.911421978518E-01 -3.145439113096E-01  3.268390747184E-01
C40 -4.911421978518E-01  3.145439113096E-01 -3.268390747184E-01
C41 -4.901318927795E-01 -4.134121374210E-01  2.409338859133E-01
C42  4.901318927795E-01  4.134121374210E-01 -2.409338859133E-01
C43  4.546266131483E-01 -2.999820018936E-01  1.671154437093E-01
C44 -4.546266131483E-01  2.999820018936E-01 -1.671154437093E-01
C45  4.758862425163E-01 -3.970021812106E-01  8.312753985869E-02
C46 -4.758862425163E-01  3.970021812106E-01 -8.312753985869E-02
C47  4.221073959613E-01 -2.823581298919E-01  8.594672499150E-03
C48 -4.221073959613E-01  2.823581298919E-01 -8.594672499150E-03
C49 -4.444521731818E-01  3.789389462395E-01  7.424305471783E-02
C50  4.444521731818E-01 -3.789389462395E-01 -7.424305471783E-02
C51 -3.897096876578E-01  2.647943050514E-01  1.499964304909E-01
C52  3.897096876578E-01 -2.647943050514E-01 -1.499964304909E-01
C53 -4.104832988458E-01  3.627017269222E-01  2.321364341245E-01
C54  4.104832988458E-01 -3.627017269222E-01 -2.321364341245E-01
C55 -3.526009491989E-01  2.495847484925E-01  3.098757528962E-01
C56  3.526009491989E-01 -2.495847484925E-01 -3.098757528962E-01
C57 -3.731668823370E-01  3.501186286153E-01  3.900802127853E-01
C58  3.731668823370E-01 -3.501186286153E-01 -3.900802127853E-01
H59 -4.670519565318E-01 -3.502884133301E-01  4.642086088644E-01
H60  4.670519565318E-01  3.502884133301E-01 -4.642086088644E-01
H61  4.308675327170E-01 -1.443954087863E-01  3.337886177786E-01
H62 -4.308675327170E-01  1.443954087863E-01 -3.337886177786E-01
H63  3.936971519659E-01 -1.299665375434E-01  1.738664805961E-01
H64 -3.936971519659E-01  1.299665375434E-01 -1.738664805961E-01
H65  3.609526207188E-01 -1.124700614774E-01  1.536245093499E-02
H66 -3.609526207188E-01  1.124700614774E-01 -1.536245093499E-02
H67 -3.283787701701E-01  9.495848502276E-02  1.433087666551E-01
H68  3.283787701701E-01 -9.495848502276E-02 -1.433087666551E-01
H69 -2.903057068478E-01  8.049552649018E-02  3.034887461916E-01
H70  2.903057068478E-01 -8.049552649018E-02 -3.034887461916E-01
H71 -3.280088641882E-01  2.621256920632E-01  4.493729557237E-01
H72  3.280088641882E-01 -2.621256920632E-01 -4.493729557237E-01


#===END

data_OPT_STEP_63

_symmetry_space_group_name_H-M 'P 1'
_cell_length_a      7.96794483
_cell_length_b      6.08252456
_cell_length_c     16.06954846
_cell_angle_alpha  101.617328
_cell_angle_beta  112.644467
_cell_angle_gamma   85.871653

loop_
_atom_site_label
_atom_site_fract_x
_atom_site_fract_y
_atom_site_fract_z
C1  1.238133841988E-01  4.097637048538E-02  4.084349050420E-01
C2 -1.238133841988E-01 -4.097637048538E-02 -4.084349050420E-01
C3 -2.389258348146E-02 -2.680588028779E-01  2.810717672264E-01
C4  2.389258348146E-02  2.680588028779E-01 -2.810717672264E-01
C5  3.575070765795E-02 -1.770071914439E-01  3.733560297671E-01
C6 -3.575070765795E-02  1.770071914439E-01 -3.733560297671E-01
C7  1.494608107562E-01  1.609822564362E-01  3.500936809247E-01
C8 -1.494608107562E-01 -1.609822564362E-01 -3.500936809247E-01
C9  9.119168313023E-02  7.083835388592E-02  2.525140298004E-01
C10 -9.119168313023E-02 -7.083835388592E-02 -2.525140298004E-01
C11  1.189677591824E-01  1.875801027599E-01  1.920529058408E-01
C12 -1.189677591824E-01 -1.875801027599E-01 -1.920529058408E-01
C13  6.055801544393E-02  9.708927308172E-02  9.602856211946E-02
C14 -6.055801544393E-02 -9.708927308172E-02 -9.602856211946E-02
C15  8.808962271650E-02  2.136085520095E-01  3.442849447317E-02
C16 -8.808962271650E-02 -2.136085520095E-01 -3.442849447317E-02
C17 -2.958965744666E-02 -1.228794440985E-01  6.059861137651E-02
C18  2.958965744666E-02  1.228794440985E-01 -6.059861137651E-02
C19 -5.641617055495E-02 -2.399671226154E-01  1.231773008342E-01
C20  5.641617055495E-02  2.399671226154E-01 -1.231773008342E-01
C21  1.987838982847E-03 -1.493529812133E-01  2.171713015752E-01
C22 -1.987838982847E-03  1.493529812133E-01 -2.171713015752E-01
H23  1.701499585592E-01  1.116228129950E-01  4.832082639231E-01
H24 -1.701499585592E-01 -1.116228129950E-01 -4.832082639231E-01
H25 -9.266353520320E-02 -4.346931671992E-01  2.539911320295E-01
H26  9.266353520320E-02  4.346931671992E-01 -2.539911320295E-01
H27  1.512453057225E-02 -2.708556522212E-01  4.214285603021E-01
H28 -1.512453057225E-02  2.708556522212E-01 -4.214285603021E-01
H29  2.145784125932E-01  3.301092397413E-01  3.762844701125E-01
H30 -2.145784125932E-01 -3.301092397413E-01 -3.762844701125E-01
H31  1.881888726419E-01  3.543039238744E-01  2.189982858591E-01
H32 -1.881888726419E-01 -3.543039238744E-01 -2.189982858591E-01
H33  1.569391049623E-01  3.805293292699E-01  6.131172391370E-02
H34 -1.569391049623E-01 -3.805293292699E-01 -6.131172391370E-02
H35 -1.247468933603E-01 -4.071894193512E-01  9.624698411139E-02
H36  1.247468933603E-01  4.071894193512E-01 -9.624698411139E-02
C37 -4.523684319773E-01 -4.289437229537E-01  3.986381417444E-01
C38  4.523684319773E-01  4.289437229537E-01 -3.986381417444E-01
C39  4.912060239703E-01 -3.145884666228E-01  3.268658067019E-01
C40 -4.912060239703E-01  3.145884666228E-01 -3.268658067019E-01
C41 -4.901062836000E-01 -4.134521593906E-01  2.409448079561E-01
C42  4.901062836000E-01  4.134521593906E-01 -2.409448079561E-01
C43  4.546230868823E-01 -3.000321585583E-01  1.671341768884E-01
C44 -4.546230868823E-01  3.000321585583E-01 -1.671341768884E-01
C45  4.758823070732E-01 -3.970287781524E-01  8.313699023536E-02
C46 -4.758823070732E-01  3.970287781524E-01 -8.313699023536E-02
C47  4.221045192458E-01 -2.823787660656E-01  8.616809765753E-03
C48 -4.221045192458E-01  2.823787660656E-01 -8.616809765753E-03
C49 -4.444540183341E-01  3.789326028793E-01  7.422985576857E-02
C50  4.444540183341E-01 -3.789326028793E-01 -7.422985576857E-02
C51 -3.897198059312E-01  2.647789089898E-01  1.499681944068E-01
C52  3.897198059312E-01 -2.647789089898E-01 -1.499681944068E-01
C53 -4.104696557899E-01  3.626728323046E-01  2.321216449172E-01
C54  4.104696557899E-01 -3.626728323046E-01 -2.321216449172E-01
C55 -3.525597408202E-01  2.495653944118E-01  3.098519137387E-01
C56  3.525597408202E-01 -2.495653944118E-01 -3.098519137387E-01
C57 -3.730852968143E-01  3.500966489876E-01  3.900728048882E-01
C58  3.730852968143E-01 -3.500966489876E-01 -3.900728048882E-01
H59 -4.669334356883E-01 -3.503292706785E-01  4.642393363098E-01
H60  4.669334356883E-01  3.503292706785E-01 -4.642393363098E-01
H61  4.309078338202E-01 -1.444663822355E-01  3.338295291428E-01
H62 -4.309078338202E-01  1.444663822355E-01 -3.338295291428E-01
H63  3.937278981777E-01 -1.300135116997E-01  1.739099655737E-01
H64 -3.937278981777E-01  1.300135116997E-01 -1.739099655737E-01
H65  3.609580629145E-01 -1.125005762996E-01  1.540412674004E-02
H66 -3.609580629145E-01  1.125005762996E-01 -1.540412674004E-02
H67 -3.283751849014E-01  9.496518521208E-02  1.432652064061E-01
H68  3.283751849014E-01 -9.496518521208E-02 -1.432652064061E-01
H69 -2.902890393449E-01  8.047607757230E-02  3.034430538626E-01
H70  2.902890393449E-01 -8.047607757230E-02 -3.034430538626E-01
H71 -3.279129674752E-01  2.621057973509E-01  4.493566620601E-01
H72  3.279129674752E-01 -2.621057973509E-01 -4.493566620601E-01


#===END

data_OPT_STEP_64

_symmetry_space_group_name_H-M 'P 1'
_cell_length_a      7.96456857
_cell_length_b      6.08229270
_cell_length_c     16.06792817
_cell_angle_alpha  101.602207
_cell_angle_beta  112.586672
_cell_angle_gamma   85.884655

loop_
_atom_site_label
_atom_site_fract_x
_atom_site_fract_y
_atom_site_fract_z
C1  1.238861369111E-01  4.098182412061E-02  4.084153897343E-01
C2 -1.238861369111E-01 -4.098182412061E-02 -4.084153897343E-01
C3 -2.378892221081E-02 -2.680649577002E-01  2.811601335548E-01
C4  2.378892221081E-02  2.680649577002E-01 -2.811601335548E-01
C5  3.585797868163E-02 -1.770102821527E-01  3.734103589398E-01
C6 -3.585797868163E-02  1.770102821527E-01 -3.734103589398E-01
C7  1.494866926668E-01  1.610042974726E-01  3.500358653811E-01
C8 -1.494866926668E-01 -1.610042974726E-01 -3.500358653811E-01
C9  9.122848563229E-02  7.084459747408E-02  2.524888805010E-01
C10 -9.122848563229E-02 -7.084459747408E-02 -2.524888805010E-01
C11  1.189590702128E-01  1.875986831117E-01  1.919864177849E-01
C12 -1.189590702128E-01 -1.875986831117E-01 -1.919864177849E-01
C13  6.056140682818E-02  9.709139370924E-02  9.599416305770E-02
C14 -6.056140682818E-02 -9.709139370924E-02 -9.599416305770E-02
C15  8.803618215079E-02  2.136315968749E-01  3.435277289393E-02
C16 -8.803618215079E-02 -2.136315968749E-01 -3.435277289393E-02
C17 -2.954281561629E-02 -1.228905160142E-01  6.064214853083E-02
C18  2.954281561629E-02  1.228905160142E-01 -6.064214853083E-02
C19 -5.634156799948E-02 -2.399774669436E-01  1.232599288888E-01
C20  5.634156799948E-02  2.399774669436E-01 -1.232599288888E-01
C21  2.072420137085E-03 -1.493635691183E-01  2.172218335120E-01
C22 -2.072420137085E-03  1.493635691183E-01 -2.172218335120E-01
H23  1.702168226172E-01  1.116293587195E-01  4.831632934620E-01
H24 -1.702168226172E-01 -1.116293587195E-01 -4.831632934620E-01
H25 -9.251579577474E-02 -4.347172809396E-01  2.541375890725E-01
H26  9.251579577474E-02  4.347172809396E-01 -2.541375890725E-01
H27  1.525485689385E-02 -2.708690747035E-01  4.215105360022E-01
H28 -1.525485689385E-02  2.708690747035E-01 -4.215105360022E-01
H29  2.146016458565E-01  3.301190160716E-01  3.761647739543E-01
H30 -2.146016458565E-01 -3.301190160716E-01 -3.761647739543E-01
H31  1.881379115211E-01  3.543400961874E-01  2.188697768447E-01
H32 -1.881379115211E-01 -3.543400961874E-01 -2.188697768447E-01
H33  1.568641736754E-01  3.805556303927E-01  6.117696743879E-02
H34 -1.568641736754E-01 -3.805556303927E-01 -6.117696743879E-02
H35 -1.246070467845E-01 -4.072306598394E-01  9.639004200765E-02
H36  1.246070467845E-01  4.072306598394E-01 -9.639004200765E-02
C37 -4.522501138414E-01 -4.289628758920E-01  3.986662259973E-01
C38  4.522501138414E-01  4.289628758920E-01 -3.986662259973E-01
C39  4.912478666583E-01 -3.146281656109E-01  3.268962956451E-01
C40 -4.912478666583E-01  3.146281656109E-01 -3.268962956451E-01
C41 -4.900884408649E-01 -4.134867374070E-01  2.409594249983E-01
C42  4.900884408649E-01  4.134867374070E-01 -2.409594249983E-01
C43  4.546474038117E-01 -3.000450244947E-01  1.671634107352E-01
C44 -4.546474038117E-01  3.000450244947E-01 -1.671634107352E-01
C45  4.758925876581E-01 -3.970371900772E-01  8.315154881477E-02
C46 -4.758925876581E-01  3.970371900772E-01 -8.315154881477E-02
C47  4.221135270499E-01 -2.823725646802E-01  8.644255190751E-03
C48 -4.221135270499E-01  2.823725646802E-01 -8.644255190751E-03
C49 -4.444450880649E-01  3.789221659425E-01  7.421815498916E-02
C50  4.444450880649E-01 -3.789221659425E-01 -7.421815498916E-02
C51 -3.897052629151E-01  2.647582196686E-01  1.499429313493E-01
C52  3.897052629151E-01 -2.647582196686E-01 -1.499429313493E-01
C53 -4.104385235100E-01  3.626423045630E-01  2.321114285843E-01
C54  4.104385235100E-01 -3.626423045630E-01 -2.321114285843E-01
C55 -3.525063539753E-01  2.495284136269E-01  3.098281190377E-01
C56  3.525063539753E-01 -2.495284136269E-01 -3.098281190377E-01
C57 -3.729868849012E-01  3.500640685064E-01  3.900687975044E-01
C58  3.729868849012E-01 -3.500640685064E-01 -3.900687975044E-01
H59 -4.667586709954E-01 -3.503485735028E-01  4.642876302258E-01
H60  4.667586709954E-01  3.503485735028E-01 -4.642876302258E-01
H61  4.309754229771E-01 -1.444929360901E-01  3.338862923743E-01
H62 -4.309754229771E-01  1.444929360901E-01 -3.338862923743E-01
H63  3.936960190289E-01 -1.300534805003E-01  1.739497634650E-01
H64 -3.936960190289E-01  1.300534805003E-01 -1.739497634650E-01
H65  3.609584115861E-01 -1.124973840929E-01  1.545006058870E-02
H66 -3.609584115861E-01  1.124973840929E-01 -1.545006058870E-02
H67 -3.283707981185E-01  9.493652958545E-02  1.432183370514E-01
H68  3.283707981185E-01 -9.493652958545E-02 -1.432183370514E-01
H69 -2.902249718872E-01  8.044395494006E-02  3.034001632493E-01
H70  2.902249718872E-01 -8.044395494006E-02 -3.034001632493E-01
H71 -3.277746441905E-01  2.620816037798E-01  4.493475378640E-01
H72  3.277746441905E-01 -2.620816037798E-01 -4.493475378640E-01


#===END

data_OPT_STEP_65

_symmetry_space_group_name_H-M 'P 1'
_cell_length_a      7.96530897
_cell_length_b      6.08050599
_cell_length_c     16.06635836
_cell_angle_alpha  101.597123
_cell_angle_beta  112.536289
_cell_angle_gamma   85.892429

loop_
_atom_site_label
_atom_site_fract_x
_atom_site_fract_y
_atom_site_fract_z
C1  1.239186842294E-01  4.105629784182E-02  4.084095618154E-01
C2 -1.239186842294E-01 -4.105629784182E-02 -4.084095618154E-01
C3 -2.371327797624E-02 -2.680721639453E-01  2.812349353132E-01
C4  2.371327797624E-02  2.680721639453E-01 -2.812349353132E-01
C5  3.590670826138E-02 -1.769760921933E-01  3.734588626236E-01
C6 -3.590670826138E-02  1.769760921933E-01 -3.734588626236E-01
C7  1.495487692583E-01  1.610653775624E-01  3.500040469418E-01
C8 -1.495487692583E-01 -1.610653775624E-01 -3.500040469418E-01
C9  9.128864206545E-02  7.087663169397E-02  2.524784524091E-01
C10 -9.128864206545E-02 -7.087663169397E-02 -2.524784524091E-01
C11  1.189874958210E-01  1.876450347559E-01  1.919432267297E-01
C12 -1.189874958210E-01 -1.876450347559E-01 -1.919432267297E-01
C13  6.057199367883E-02  9.711792385815E-02  9.597237106106E-02
C14 -6.057199367883E-02 -9.711792385815E-02 -9.597237106106E-02
C15  8.801470911031E-02  2.136716345262E-01  3.429629688510E-02
C16 -8.801470911031E-02 -2.136716345262E-01 -3.429629688510E-02
C17 -2.951320597359E-02 -1.229052692365E-01  6.067580693261E-02
C18  2.951320597359E-02  1.229052692365E-01 -6.067580693261E-02
C19 -5.627455279104E-02 -2.400103829156E-01  1.233279138208E-01
C20  5.627455279104E-02  2.400103829156E-01 -1.233279138208E-01
C21  2.139936353541E-03 -1.493663319452E-01  2.172661796774E-01
C22 -2.139936353541E-03  1.493663319452E-01 -2.172661796774E-01
H23  1.702296318987E-01  1.117354035137E-01  4.831387273433E-01
H24 -1.702296318987E-01 -1.117354035137E-01 -4.831387273433E-01
H25 -9.241898299169E-02 -4.347599924251E-01  2.542547290974E-01
H26  9.241898299169E-02  4.347599924251E-01 -2.542547290974E-01
H27  1.530167954931E-02 -2.708443282025E-01  4.215791470182E-01
H28 -1.530167954931E-02  2.708443282025E-01 -4.215791470182E-01
H29  2.146555295098E-01  3.302172997068E-01  3.760969738916E-01
H30 -2.146555295098E-01 -3.302172997068E-01 -3.760969738916E-01
H31  1.881599561131E-01  3.544118540220E-01  2.187811944121E-01
H32 -1.881599561131E-01 -3.544118540220E-01 -2.187811944121E-01
H33  1.568243929450E-01  3.806298523698E-01  6.107620202017E-02
H34 -1.568243929450E-01 -3.806298523698E-01 -6.107620202017E-02
H35 -1.245541467313E-01 -4.072771849864E-01  9.649871755449E-02
H36  1.245541467313E-01  4.072771849864E-01 -9.649871755449E-02
C37 -4.521344202930E-01 -4.289830706196E-01  3.986955393117E-01
C38  4.521344202930E-01  4.289830706196E-01 -3.986955393117E-01
C39  4.913328065525E-01 -3.146261672616E-01  3.269376578218E-01
C40 -4.913328065525E-01  3.146261672616E-01 -3.269376578218E-01
C41 -4.900236864703E-01 -4.134985422352E-01  2.409839020259E-01
C42  4.900236864703E-01  4.134985422352E-01 -2.409839020259E-01
C43  4.546601424303E-01 -3.000420333631E-01  1.671972032490E-01
C44 -4.546601424303E-01  3.000420333631E-01 -1.671972032490E-01
C45  4.758959116190E-01 -3.970356010447E-01  8.316844718934E-02
C46 -4.758959116190E-01  3.970356010447E-01 -8.316844718934E-02
C47  4.220635656377E-01 -2.823520842274E-01  8.668694309066E-03
C48 -4.220635656377E-01  2.823520842274E-01 -8.668694309066E-03
C49 -4.443991703795E-01  3.788977403209E-01  7.420842492324E-02
C50  4.443991703795E-01 -3.788977403209E-01 -7.420842492324E-02
C51 -3.896156792716E-01  2.647085231339E-01  1.499247019828E-01
C52  3.896156792716E-01 -2.647085231339E-01 -1.499247019828E-01
C53 -4.103477415457E-01  3.625972874840E-01  2.321070893064E-01
C54  4.103477415457E-01 -3.625972874840E-01 -2.321070893064E-01
C55 -3.523723327976E-01  2.494622823007E-01  3.098153636904E-01
C56  3.523723327976E-01 -2.494622823007E-01 -3.098153636904E-01
C57 -3.728370422404E-01  3.500160557823E-01  3.900721042438E-01
C58  3.728370422404E-01 -3.500160557823E-01 -3.900721042438E-01
H59 -4.666131776536E-01 -3.503503141193E-01  4.643312260072E-01
H60  4.666131776536E-01  3.503503141193E-01 -4.643312260072E-01
H61  4.310087037582E-01 -1.444806462821E-01  3.339427807956E-01
H62 -4.310087037582E-01  1.444806462821E-01 -3.339427807956E-01
H63  3.937175852517E-01 -1.300106251307E-01  1.740108677839E-01
H64 -3.937175852517E-01  1.300106251307E-01 -1.740108677839E-01
H65  3.608816760685E-01 -1.124561112412E-01  1.549608255860E-02
H66 -3.608816760685E-01  1.124561112412E-01 -1.549608255860E-02
H67 -3.282557158361E-01  9.486571983131E-02  1.431789106067E-01
H68  3.282557158361E-01 -9.486571983131E-02 -1.431789106067E-01
H69 -2.900993899259E-01  8.033756391702E-02  3.033612362435E-01
H70  2.900993899259E-01 -8.033756391702E-02 -3.033612362435E-01
H71 -3.276177523002E-01  2.620105562680E-01  4.493407341176E-01
H72  3.276177523002E-01 -2.620105562680E-01 -4.493407341176E-01


#===END

data_OPT_STEP_66

_symmetry_space_group_name_H-M 'P 1'
_cell_length_a      7.96646665
_cell_length_b      6.08027668
_cell_length_c     16.06765336
_cell_angle_alpha  101.592871
_cell_angle_beta  112.548223
_cell_angle_gamma   85.891745

loop_
_atom_site_label
_atom_site_fract_x
_atom_site_fract_y
_atom_site_fract_z
C1  1.239495907038E-01  4.099033786963E-02  4.083878755958E-01
C2 -1.239495907038E-01 -4.099033786963E-02 -4.083878755958E-01
C3 -2.368532009418E-02 -2.681472736764E-01  2.812093847662E-01
C4  2.368532009418E-02  2.681472736764E-01 -2.812093847662E-01
C5  3.591934437060E-02 -1.770341385379E-01  3.734309670750E-01
C6 -3.591934437060E-02  1.770341385379E-01 -3.734309670750E-01
C7  1.495946175473E-01  1.609888591931E-01  3.499874464649E-01
C8 -1.495946175473E-01 -1.609888591931E-01 -3.499874464649E-01
C9  9.132138326832E-02  7.080655981910E-02  2.524644269463E-01
C10 -9.132138326832E-02 -7.080655981910E-02 -2.524644269463E-01
C11  1.190222286641E-01  1.875936244279E-01  1.919389755789E-01
C12 -1.190222286641E-01 -1.875936244279E-01 -1.919389755789E-01
C13  6.059289978623E-02  9.708764691940E-02  9.596900340305E-02
C14 -6.059289978623E-02 -9.708764691940E-02 -9.596900340305E-02
C15  8.803104750229E-02  2.136669745349E-01  3.430664266378E-02
C16 -8.803104750229E-02 -2.136669745349E-01 -3.430664266378E-02
C17 -2.951326346836E-02 -1.229246412255E-01  6.066681048190E-02
C18  2.951326346836E-02  1.229246412255E-01 -6.066681048190E-02
C19 -5.627655930275E-02 -2.400481943040E-01  1.233079678815E-01
C20  5.627655930275E-02  2.400481943040E-01 -1.233079678815E-01
C21  2.162380169922E-03 -1.494324686382E-01  2.172465861733E-01
C22 -2.162380169922E-03  1.494324686382E-01 -2.172465861733E-01
H23  1.702438444820E-01  1.116761994934E-01  4.831153789754E-01
H24 -1.702438444820E-01 -1.116761994934E-01 -4.831153789754E-01
H25 -9.243905561970E-02 -4.348051406010E-01  2.542240755010E-01
H26  9.243905561970E-02  4.348051406010E-01 -2.542240755010E-01
H27  1.531231541843E-02 -2.708813050443E-01  4.215520499467E-01
H28 -1.531231541843E-02  2.708813050443E-01 -4.215520499467E-01
H29  2.147007541693E-01  3.301446960807E-01  3.760748129813E-01
H30 -2.147007541693E-01 -3.301446960807E-01 -3.760748129813E-01
H31  1.881957154943E-01  3.543626860319E-01  2.187833504704E-01
H32 -1.881957154943E-01 -3.543626860319E-01 -2.187833504704E-01
H33  1.568674879607E-01  3.806102866377E-01  6.109679468345E-02
H34 -1.568674879607E-01 -3.806102866377E-01 -6.109679468345E-02
H35 -1.245804548188E-01 -4.073013561050E-01  9.647052084121E-02
H36  1.245804548188E-01  4.073013561050E-01 -9.647052084121E-02
C37 -4.520708644348E-01 -4.289625492769E-01  3.986854796071E-01
C38  4.520708644348E-01  4.289625492769E-01 -3.986854796071E-01
C39  4.913918527071E-01 -3.146051688280E-01  3.269230810744E-01
C40 -4.913918527071E-01  3.146051688280E-01 -3.269230810744E-01
C41 -4.899923306649E-01 -4.134884613387E-01  2.409735107466E-01
C42  4.899923306649E-01  4.134884613387E-01 -2.409735107466E-01
C43  4.546737793522E-01 -3.000386190730E-01  1.671789356318E-01
C44 -4.546737793522E-01  3.000386190730E-01 -1.671789356318E-01
C45  4.759030105173E-01 -3.970318210981E-01  8.315968210557E-02
C46 -4.759030105173E-01  3.970318210981E-01 -8.315968210557E-02
C47  4.220330652976E-01 -2.823657601390E-01  8.649020184715E-03
C48 -4.220330652976E-01  2.823657601390E-01 -8.649020184715E-03
C49 -4.443928340247E-01  3.788973435625E-01  7.421388025621E-02
C50  4.443928340247E-01 -3.788973435625E-01 -7.421388025621E-02
C51 -3.895812487855E-01  2.647182626052E-01  1.499375352046E-01
C52  3.895812487855E-01 -2.647182626052E-01 -1.499375352046E-01
C53 -4.103082591214E-01  3.626102602940E-01  2.321127254812E-01
C54  4.103082591214E-01 -3.626102602940E-01 -2.321127254812E-01
C55 -3.523155053053E-01  2.494800585832E-01  3.098252320772E-01
C56  3.523155053053E-01 -2.494800585832E-01 -3.098252320772E-01
C57 -3.727684435978E-01  3.500389580757E-01  3.900761622525E-01
C58  3.727684435978E-01 -3.500389580757E-01 -3.900761622525E-01
H59 -4.665437823546E-01 -3.503361835286E-01  4.643196371433E-01
H60  4.665437823546E-01  3.503361835286E-01 -4.643196371433E-01
H61  4.310722956690E-01 -1.444573328406E-01  3.339189732375E-01
H62 -4.310722956690E-01  1.444573328406E-01 -3.339189732375E-01
H63  3.937334138383E-01 -1.300049081602E-01  1.739819737897E-01
H64 -3.937334138383E-01  1.300049081602E-01 -1.739819737897E-01
H65  3.608892485971E-01 -1.124467434490E-01  1.547040316965E-02
H66 -3.608892485971E-01  1.124467434490E-01 -1.547040316965E-02
H67 -3.282099503515E-01  9.487953546557E-02  1.432063541598E-01
H68  3.282099503515E-01 -9.487953546557E-02 -1.432063541598E-01
H69 -2.900322330631E-01  8.035918168679E-02  3.033844530854E-01
H70  2.900322330631E-01 -8.035918168679E-02 -3.033844530854E-01
H71 -3.275208967769E-01  2.620481842941E-01  4.493521662264E-01
H72  3.275208967769E-01 -2.620481842941E-01 -4.493521662264E-01


#===END

data_OPT_STEP_67

_symmetry_space_group_name_H-M 'P 1'
_cell_length_a      7.96708103
_cell_length_b      6.08007585
_cell_length_c     16.06786982
_cell_angle_alpha  101.595109
_cell_angle_beta  112.555422
_cell_angle_gamma   85.892406

loop_
_atom_site_label
_atom_site_fract_x
_atom_site_fract_y
_atom_site_fract_z
C1  1.239653086434E-01  4.099600273608E-02  4.083930743056E-01
C2 -1.239653086434E-01 -4.099600273608E-02 -4.083930743056E-01
C3 -2.371224242472E-02 -2.681348075198E-01  2.811990178107E-01
C4  2.371224242472E-02  2.681348075198E-01 -2.811990178107E-01
C5  3.593997243995E-02 -1.770468842150E-01  3.734273884473E-01
C6 -3.593997243995E-02  1.770468842150E-01 -3.734273884473E-01
C7  1.495926764766E-01  1.610110121683E-01  3.499964895824E-01
C8 -1.495926764766E-01 -1.610110121683E-01 -3.499964895824E-01
C9  9.131730987530E-02  7.082070268350E-02  2.524689714675E-01
C10 -9.131730987530E-02 -7.082070268350E-02 -2.524689714675E-01
C11  1.190340636185E-01  1.876019180565E-01  1.919492622880E-01
C12 -1.190340636185E-01 -1.876019180565E-01 -1.919492622880E-01
C13  6.060552588235E-02  9.708741397569E-02  9.597471889648E-02
C14 -6.060552588235E-02 -9.708741397569E-02 -9.597471889648E-02
C15  8.805093189300E-02  2.136678327199E-01  3.431667594976E-02
C16 -8.805093189300E-02 -2.136678327199E-01 -3.431667594976E-02
C17 -2.952163652240E-02 -1.229252920253E-01  6.066171083240E-02
C18  2.952163652240E-02  1.229252920253E-01 -6.066171083240E-02
C19 -5.628968345868E-02 -2.400494617235E-01  1.232982902690E-01
C20  5.628968345868E-02  2.400494617235E-01 -1.232982902690E-01
C21  2.153841392206E-03 -1.494284878092E-01  2.172415636394E-01
C22 -2.153841392206E-03  1.494284878092E-01 -2.172415636394E-01
H23  1.702716843781E-01  1.116776965530E-01  4.831245805398E-01
H24 -1.702716843781E-01 -1.116776965530E-01 -4.831245805398E-01
H25 -9.242859737093E-02 -4.348267575040E-01  2.542091268885E-01
H26  9.242859737093E-02  4.348267575040E-01 -2.542091268885E-01
H27  1.531972626061E-02 -2.708850107034E-01  4.215455998892E-01
H28 -1.531972626061E-02  2.708850107034E-01 -4.215455998892E-01
H29  2.147181428831E-01  3.301643599023E-01  3.760896561882E-01
H30 -2.147181428831E-01 -3.301643599023E-01 -3.760896561882E-01
H31  1.882212044773E-01  3.543723385379E-01  2.188020786745E-01
H32 -1.882212044773E-01 -3.543723385379E-01 -2.188020786745E-01
H33  1.568895027064E-01  3.806201500114E-01  6.111410752340E-02
H34 -1.568895027064E-01 -3.806201500114E-01 -6.111410752340E-02
H35 -1.246022451998E-01 -4.073072890458E-01  9.645289450778E-02
H36  1.246022451998E-01  4.073072890458E-01 -9.645289450778E-02
C37 -4.520696111252E-01 -4.289515774986E-01  3.986850174738E-01
C38  4.520696111252E-01  4.289515774986E-01 -3.986850174738E-01
C39  4.913987490720E-01 -3.145895857590E-01  3.269216885907E-01
C40 -4.913987490720E-01  3.145895857590E-01 -3.269216885907E-01
C41 -4.899745733949E-01 -4.134707005183E-01  2.409753675519E-01
C42  4.899745733949E-01  4.134707005183E-01 -2.409753675519E-01
C43  4.546838357673E-01 -3.000268914459E-01  1.671775065899E-01
C44 -4.546838357673E-01  3.000268914459E-01 -1.671775065899E-01
C45  4.759030405969E-01 -3.970297356826E-01  8.315776767531E-02
C46 -4.759030405969E-01  3.970297356826E-01 -8.315776767531E-02
C47  4.220586629064E-01 -2.823497170428E-01  8.650248397741E-03
C48 -4.220586629064E-01  2.823497170428E-01 -8.650248397741E-03
C49 -4.443829877304E-01  3.789029083481E-01  7.421707675858E-02
C50  4.443829877304E-01 -3.789029083481E-01 -7.421707675858E-02
C51 -3.895699387646E-01  2.647254592992E-01  1.499431130322E-01
C52  3.895699387646E-01 -2.647254592992E-01 -1.499431130322E-01
C53 -4.102995443539E-01  3.626194697479E-01  2.321161286779E-01
C54  4.102995443539E-01 -3.626194697479E-01 -2.321161286779E-01
C55 -3.522872085013E-01  2.494990131190E-01  3.098343274562E-01
C56  3.522872085013E-01 -2.494990131190E-01 -3.098343274562E-01
C57 -3.727475407387E-01  3.500583687294E-01  3.900824753342E-01
C58  3.727475407387E-01 -3.500583687294E-01 -3.900824753342E-01
H59 -4.665268233115E-01 -3.503189560010E-01  4.643213570351E-01
H60  4.665268233115E-01  3.503189560010E-01 -4.643213570351E-01
H61  4.310712383301E-01 -1.444434795477E-01  3.339137457515E-01
H62 -4.310712383301E-01  1.444434795477E-01 -3.339137457515E-01
H63  3.937492398516E-01 -1.299881470843E-01  1.739784734275E-01
H64 -3.937492398516E-01  1.299881470843E-01 -1.739784734275E-01
H65  3.608716471271E-01 -1.124533849988E-01  1.546134954771E-02
H66 -3.608716471271E-01  1.124533849988E-01 -1.546134954771E-02
H67 -3.282190803240E-01  9.487305849537E-02  1.432110460627E-01
H68  3.282190803240E-01 -9.487305849537E-02 -1.432110460627E-01
H69 -2.900170940098E-01  8.036850768278E-02  3.033934487886E-01
H70  2.900170940098E-01 -8.036850768278E-02 -3.033934487886E-01
H71 -3.274952819588E-01  2.620731263697E-01  4.493616764536E-01
H72  3.274952819588E-01 -2.620731263697E-01 -4.493616764536E-01


#===END

data_OPT_STEP_68

_symmetry_space_group_name_H-M 'P 1'
_cell_length_a      7.96665090
_cell_length_b      6.07984762
_cell_length_c     16.06708213
_cell_angle_alpha  101.595585
_cell_angle_beta  112.548164
_cell_angle_gamma   85.893572

loop_
_atom_site_label
_atom_site_fract_x
_atom_site_fract_y
_atom_site_fract_z
C1  1.239490773559E-01  4.106574100353E-02  4.084101563571E-01
C2 -1.239490773559E-01 -4.106574100353E-02 -4.084101563571E-01
C3 -2.371334066530E-02 -2.680948593406E-01  2.812247183330E-01
C4  2.371334066530E-02  2.680948593406E-01 -2.812247183330E-01
C5  3.591946147540E-02 -1.769834292055E-01  3.734516745206E-01
C6 -3.591946147540E-02  1.769834292055E-01 -3.734516745206E-01
C7  1.495903081483E-01  1.610723122851E-01  3.500081735629E-01
C8 -1.495903081483E-01 -1.610723122851E-01 -3.500081735629E-01
C9  9.131635792490E-02  7.086973438352E-02  2.524794808893E-01
C10 -9.131635792490E-02 -7.086973438352E-02 -2.524794808893E-01
C11  1.190168557749E-01  1.876515712611E-01  1.919499390771E-01
C12 -1.190168557749E-01 -1.876515712611E-01 -1.919499390771E-01
C13  6.058831627908E-02  9.711741481976E-02  9.597493858957E-02
C14 -6.058831627908E-02 -9.711741481976E-02 -9.597493858957E-02
C15  8.803517619243E-02  2.136858452959E-01  3.430540617866E-02
C16 -8.803517619243E-02 -2.136858452959E-01 -3.430540617866E-02
C17 -2.952106590783E-02 -1.229144698038E-01  6.067107635866E-02
C18  2.952106590783E-02  1.229144698038E-01 -6.067107635866E-02
C19 -5.628621543020E-02 -2.400315672662E-01  1.233169562530E-01
C20  5.628621543020E-02  2.400315672662E-01 -1.233169562530E-01
C21  2.145721724713E-03 -1.493854333851E-01  2.172591396338E-01
C22 -2.145721724713E-03  1.493854333851E-01 -2.172591396338E-01
H23  1.702573950307E-01  1.117545409555E-01  4.831413282136E-01
H24 -1.702573950307E-01 -1.117545409555E-01 -4.831413282136E-01
H25 -9.242706128222E-02 -4.347969848196E-01  2.542405478191E-01
H26  9.242706128222E-02  4.347969848196E-01 -2.542405478191E-01
H27  1.532183272317E-02 -2.708425028591E-01  4.215753229568E-01
H28 -1.532183272317E-02  2.708425028591E-01 -4.215753229568E-01
H29  2.147155019578E-01  3.302359383385E-01  3.761003176646E-01
H30 -2.147155019578E-01 -3.302359383385E-01 -3.761003176646E-01
H31  1.882027290605E-01  3.544313823115E-01  2.187950886625E-01
H32 -1.882027290605E-01 -3.544313823115E-01 -2.187950886625E-01
H33  1.568686912357E-01  3.806497132427E-01  6.109456964475E-02
H34 -1.568686912357E-01 -3.806497132427E-01 -6.109456964475E-02
H35 -1.245851663018E-01 -4.073058432170E-01  9.647937201080E-02
H36  1.245851663018E-01  4.073058432170E-01 -9.647937201080E-02
C37 -4.520861966450E-01 -4.289453501322E-01  3.986958452874E-01
C38  4.520861966450E-01  4.289453501322E-01 -3.986958452874E-01
C39  4.913580522591E-01 -3.145906121809E-01  3.269288246166E-01
C40 -4.913580522591E-01  3.145906121809E-01 -3.269288246166E-01
C41 -4.900112955881E-01 -4.134774509728E-01  2.409782722200E-01
C42  4.900112955881E-01  4.134774509728E-01 -2.409782722200E-01
C43  4.546729569005E-01 -3.000164683703E-01  1.671850980537E-01
C44 -4.546729569005E-01  3.000164683703E-01 -1.671850980537E-01
C45  4.759031400558E-01 -3.970215928337E-01  8.316239128559E-02
C46 -4.759031400558E-01  3.970215928337E-01 -8.316239128559E-02
C47  4.220578732373E-01 -2.823422119964E-01  8.654418680831E-03
C48 -4.220578732373E-01  2.823422119964E-01 -8.654418680831E-03
C49 -4.443927532866E-01  3.788975066229E-01  7.421559594531E-02
C50  4.443927532866E-01 -3.788975066229E-01 -7.421559594531E-02
C51 -3.896035889094E-01  2.647067573316E-01  1.499378381998E-01
C52  3.896035889094E-01 -2.647067573316E-01 -1.499378381998E-01
C53 -4.103261365452E-01  3.626091533502E-01  2.321157879390E-01
C54  4.103261365452E-01 -3.626091533502E-01 -2.321157879390E-01
C55 -3.523295789924E-01  2.494770884803E-01  3.098314715617E-01
C56  3.523295789924E-01 -2.494770884803E-01 -3.098314715617E-01
C57 -3.727784314071E-01  3.500459307280E-01  3.900853661405E-01
C58  3.727784314071E-01 -3.500459307280E-01 -3.900853661405E-01
H59 -4.665263845763E-01 -3.503050235083E-01  4.643361731318E-01
H60  4.665263845763E-01  3.503050235083E-01 -4.643361731318E-01
H61  4.310382378425E-01 -1.444326881186E-01  3.339254752264E-01
H62 -4.310382378425E-01  1.444326881186E-01 -3.339254752264E-01
H63  3.937204295494E-01 -1.299795082604E-01  1.739863603778E-01
H64 -3.937204295494E-01  1.299795082604E-01 -1.739863603778E-01
H65  3.608854271952E-01 -1.124308440784E-01  1.547182028776E-02
H66 -3.608854271952E-01  1.124308440784E-01 -1.547182028776E-02
H67 -3.282402557864E-01  9.485507030221E-02  1.432039458819E-01
H68  3.282402557864E-01 -9.485507030221E-02 -1.432039458819E-01
H69 -2.900433207707E-01  8.034946111345E-02  3.033889878345E-01
H70  2.900433207707E-01 -8.034946111345E-02 -3.033889878345E-01
H71 -3.275115141516E-01  2.620652364169E-01  4.493669121660E-01
H72  3.275115141516E-01 -2.620652364169E-01 -4.493669121660E-01


#===END

data_OPT_STEP_69

_symmetry_space_group_name_H-M 'P 1'
_cell_length_a      7.96617384
_cell_length_b      6.08019379
_cell_length_c     16.06715304
_cell_angle_alpha  101.596950
_cell_angle_beta  112.543420
_cell_angle_gamma   85.891816

loop_
_atom_site_label
_atom_site_fract_x
_atom_site_fract_y
_atom_site_fract_z
C1  1.239719288367E-01  4.104912798004E-02  4.084033667156E-01
C2 -1.239719288367E-01 -4.104912798004E-02 -4.084033667156E-01
C3 -2.368614685452E-02 -2.680982431436E-01  2.812241091466E-01
C4  2.368614685452E-02  2.680982431436E-01 -2.812241091466E-01
C5  3.594509764330E-02 -1.769892654562E-01  3.734482267652E-01
C6 -3.594509764330E-02  1.769892654562E-01 -3.734482267652E-01
C7  1.496066841132E-01  1.610516924568E-01  3.500004296282E-01
C8 -1.496066841132E-01 -1.610516924568E-01 -3.500004296282E-01
C9  9.132859398595E-02  7.085505379903E-02  2.524745337417E-01
C10 -9.132859398595E-02 -7.085505379903E-02 -2.524745337417E-01
C11  1.190283437908E-01  1.876320058327E-01  1.919446621687E-01
C12 -1.190283437908E-01 -1.876320058327E-01 -1.919446621687E-01
C13  6.059673517512E-02  9.710629112250E-02  9.597228692339E-02
C14 -6.059673517512E-02 -9.710629112250E-02 -9.597228692339E-02
C15  8.803315262407E-02  2.136745494265E-01  3.430314174194E-02
C16 -8.803315262407E-02 -2.136745494265E-01 -3.430314174194E-02
C17 -2.951163097536E-02 -1.229139143767E-01  6.067163531870E-02
C18  2.951163097536E-02  1.229139143767E-01 -6.067163531870E-02
C19 -5.627379293782E-02 -2.400266640068E-01  1.233178092124E-01
C20  5.627379293782E-02  2.400266640068E-01 -1.233178092124E-01
C21  2.165289202789E-03 -1.493917525390E-01  2.172580097137E-01
C22 -2.165289202789E-03  1.493917525390E-01 -2.172580097137E-01
H23  1.702769617538E-01  1.117358469448E-01  4.831324900847E-01
H24 -1.702769617538E-01 -1.117358469448E-01 -4.831324900847E-01
H25 -9.240708189415E-02 -4.347857315864E-01  2.542421377782E-01
H26  9.240708189415E-02  4.347857315864E-01 -2.542421377782E-01
H27  1.535340990948E-02 -2.708413593197E-01  4.215734975494E-01
H28 -1.535340990948E-02  2.708413593197E-01 -4.215734975494E-01
H29  2.147278156655E-01  3.302067021398E-01  3.760885453975E-01
H30 -2.147278156655E-01 -3.302067021398E-01 -3.760885453975E-01
H31  1.882104147521E-01  3.544045087894E-01  2.187876524113E-01
H32 -1.882104147521E-01 -3.544045087894E-01 -2.187876524113E-01
H33  1.568670155948E-01  3.806289662431E-01  6.109069502426E-02
H34 -1.568670155948E-01 -3.806289662431E-01 -6.109069502426E-02
H35 -1.245735284998E-01 -4.072904165430E-01  9.648266231895E-02
H36  1.245735284998E-01  4.072904165430E-01 -9.648266231895E-02
C37 -4.520593310216E-01 -4.289387731986E-01  3.986992126898E-01
C38  4.520593310216E-01  4.289387731986E-01 -3.986992126898E-01
C39  4.913878412819E-01 -3.145870148908E-01  3.269369175317E-01
C40 -4.913878412819E-01  3.145870148908E-01 -3.269369175317E-01
C41 -4.899923195567E-01 -4.134742286723E-01  2.409824195212E-01
C42  4.899923195567E-01  4.134742286723E-01 -2.409824195212E-01
C43  4.546797615439E-01 -3.000218568228E-01  1.671913082790E-01
C44 -4.546797615439E-01  3.000218568228E-01 -1.671913082790E-01
C45  4.759041085695E-01 -3.970249029667E-01  8.316528980030E-02
C46 -4.759041085695E-01  3.970249029667E-01 -8.316528980030E-02
C47  4.220503313831E-01 -2.823518957867E-01  8.659826788479E-03
C48 -4.220503313831E-01  2.823518957867E-01 -8.659826788479E-03
C49 -4.443891974998E-01  3.789011983216E-01  7.421197669673E-02
C50  4.443891974998E-01 -3.789011983216E-01 -7.421197669673E-02
C51 -3.895847824287E-01  2.647199933511E-01  1.499326701814E-01
C52  3.895847824287E-01 -2.647199933511E-01 -1.499326701814E-01
C53 -4.103088651637E-01  3.626185499904E-01  2.321128512983E-01
C54  4.103088651637E-01 -3.626185499904E-01 -2.321128512983E-01
C55 -3.523037153044E-01  2.494940962678E-01  3.098258285664E-01
C56  3.523037153044E-01 -2.494940962678E-01 -3.098258285664E-01
C57 -3.727490040238E-01  3.500618745538E-01  3.900827852980E-01
C58  3.727490040238E-01 -3.500618745538E-01 -3.900827852980E-01
H59 -4.665086466317E-01 -3.503031416323E-01  4.643406557159E-01
H60  4.665086466317E-01  3.503031416323E-01 -4.643406557159E-01
H61  4.310655606294E-01 -1.444357473936E-01  3.339385927868E-01
H62 -4.310655606294E-01  1.444357473936E-01 -3.339385927868E-01
H63  3.937305211894E-01 -1.299881686128E-01  1.739987046391E-01
H64 -3.937305211894E-01  1.299881686128E-01 -1.739987046391E-01
H65  3.608811141904E-01 -1.124429054764E-01  1.548302567994E-02
H66 -3.608811141904E-01  1.124429054764E-01 -1.548302567994E-02
H67 -3.282188195364E-01  9.487481737422E-02  1.431940085736E-01
H68  3.282188195364E-01 -9.487481737422E-02 -1.431940085736E-01
H69 -2.900211303082E-01  8.036933552517E-02  3.033781149461E-01
H70  2.900211303082E-01 -8.036933552517E-02 -3.033781149461E-01
H71 -3.274859480715E-01  2.620815366648E-01  4.493601909123E-01
H72  3.274859480715E-01 -2.620815366648E-01 -4.493601909123E-01


#===END

data_OPT_STEP_70

_symmetry_space_group_name_H-M 'P 1'
_cell_length_a      7.96610703
_cell_length_b      6.08023319
_cell_length_c     16.06709885
_cell_angle_alpha  101.597658
_cell_angle_beta  112.540639
_cell_angle_gamma   85.893817

loop_
_atom_site_label
_atom_site_fract_x
_atom_site_fract_y
_atom_site_fract_z
C1  1.239863795839E-01  4.104794696034E-02  4.084033520101E-01
C2 -1.239863795839E-01 -4.104794696034E-02 -4.084033520101E-01
C3 -2.367342448092E-02 -2.681026684135E-01  2.812250985912E-01
C4  2.367342448092E-02  2.681026684135E-01 -2.812250985912E-01
C5  3.595999334026E-02 -1.769921332191E-01  3.734489677987E-01
C6 -3.595999334026E-02  1.769921332191E-01 -3.734489677987E-01
C7  1.496196825184E-01  1.610509907242E-01  3.500002462039E-01
C8 -1.496196825184E-01 -1.610509907242E-01 -3.500002462039E-01
C9  9.133817225891E-02  7.085402619729E-02  2.524745376301E-01
C10 -9.133817225891E-02 -7.085402619729E-02 -2.524745376301E-01
C11  1.190360183090E-01  1.876313851846E-01  1.919440677303E-01
C12 -1.190360183090E-01 -1.876313851846E-01 -1.919440677303E-01
C13  6.060147244610E-02  9.710544705521E-02  9.597207491269E-02
C14 -6.060147244610E-02 -9.710544705521E-02 -9.597207491269E-02
C15  8.803506700555E-02  2.136749379378E-01  3.430263643561E-02
C16 -8.803506700555E-02 -2.136749379378E-01 -3.430263643561E-02
C17 -2.950942036684E-02 -1.229145705645E-01  6.067205526543E-02
C18  2.950942036684E-02  1.229145705645E-01 -6.067205526543E-02
C19 -5.626768392414E-02 -2.400292331240E-01  1.233186797708E-01
C20  5.626768392414E-02  2.400292331240E-01 -1.233186797708E-01
C21  2.174655687106E-03 -1.493943162865E-01  2.172586918020E-01
C22 -2.174655687106E-03  1.493943162865E-01 -2.172586918020E-01
H23  1.702925058673E-01  1.117333467974E-01  4.831323469297E-01
H24 -1.702925058673E-01 -1.117333467974E-01 -4.831323469297E-01
H25 -9.239373086157E-02 -4.347914220491E-01  2.542437122169E-01
H26  9.239373086157E-02  4.347914220491E-01 -2.542437122169E-01
H27  1.537189923516E-02 -2.708397799165E-01  4.215762465870E-01
H28 -1.537189923516E-02  2.708397799165E-01 -4.215762465870E-01
H29  2.147451524406E-01  3.302053226849E-01  3.760878486409E-01
H30 -2.147451524406E-01 -3.302053226849E-01 -3.760878486409E-01
H31  1.882182345077E-01  3.544047908214E-01  2.187862938533E-01
H32 -1.882182345077E-01 -3.544047908214E-01 -2.187862938533E-01
H33  1.568686995239E-01  3.806301705067E-01  6.108949465604E-02
H34 -1.568686995239E-01 -3.806301705067E-01 -6.108949465604E-02
H35 -1.245686810015E-01 -4.072934149926E-01  9.648406425901E-02
H36  1.245686810015E-01  4.072934149926E-01 -9.648406425901E-02
C37 -4.520303162669E-01 -4.289309644732E-01  3.987047625763E-01
C38  4.520303162669E-01  4.289309644732E-01 -3.987047625763E-01
C39  4.914106490651E-01 -3.145847831124E-01  3.269432202247E-01
C40 -4.914106490651E-01  3.145847831124E-01 -3.269432202247E-01
C41 -4.899754415361E-01 -4.134728448927E-01  2.409863248033E-01
C42  4.899754415361E-01  4.134728448927E-01 -2.409863248033E-01
C43  4.546876852661E-01 -3.000264107571E-01  1.671958570962E-01
C44 -4.546876852661E-01  3.000264107571E-01 -1.671958570962E-01
C45  4.759080584460E-01 -3.970270326329E-01  8.316766031867E-02
C46 -4.759080584460E-01  3.970270326329E-01 -8.316766031867E-02
C47  4.220482222763E-01 -2.823570127997E-01  8.663329992141E-03
C48 -4.220482222763E-01  2.823570127997E-01 -8.663329992141E-03
C49 -4.443825688381E-01  3.789044190046E-01  7.421081629979E-02
C50  4.443825688381E-01 -3.789044190046E-01 -7.421081629979E-02
C51 -3.895711411904E-01  2.647265014918E-01  1.499307723454E-01
C52  3.895711411904E-01 -2.647265014918E-01 -1.499307723454E-01
C53 -4.102909367066E-01  3.626244934465E-01  2.321132320984E-01
C54  4.102909367066E-01 -3.626244934465E-01 -2.321132320984E-01
C55 -3.522765581300E-01  2.495058866750E-01  3.098259830192E-01
C56  3.522765581300E-01 -2.495058866750E-01 -3.098259830192E-01
C57 -3.727161169321E-01  3.500754344014E-01  3.900855187543E-01
C58  3.727161169321E-01 -3.500754344014E-01 -3.900855187543E-01
H59 -4.664742410248E-01 -3.502923151219E-01  4.643485950630E-01
H60  4.664742410248E-01  3.502923151219E-01 -4.643485950630E-01
H61  4.310880158191E-01 -1.444372866920E-01  3.339472806711E-01
H62 -4.310880158191E-01  1.444372866920E-01 -3.339472806711E-01
H63  3.937420463268E-01 -1.299945665002E-01  1.740068425059E-01
H64 -3.937420463268E-01  1.299945665002E-01 -1.740068425059E-01
H65  3.608793655154E-01 -1.124515969246E-01  1.548954467358E-02
H66 -3.608793655154E-01  1.124515969246E-01 -1.548954467358E-02
H67 -3.282063764213E-01  9.488410555415E-02  1.431888812244E-01
H68  3.282063764213E-01 -9.488410555415E-02 -1.431888812244E-01
H69 -2.899943736781E-01  8.038422000891E-02  3.033756458751E-01
H70  2.899943736781E-01 -8.038422000891E-02 -3.033756458751E-01
H71 -3.274413465132E-01  2.621035971020E-01  4.493635903995E-01
H72  3.274413465132E-01 -2.621035971020E-01 -4.493635903995E-01


#===END

data_OPT_STEP_71

_symmetry_space_group_name_H-M 'P 1'
_cell_length_a      7.96925074
_cell_length_b      6.08053965
_cell_length_c     16.06924921
_cell_angle_alpha  101.611673
_cell_angle_beta  112.605183
_cell_angle_gamma   85.881932

loop_
_atom_site_label
_atom_site_fract_x
_atom_site_fract_y
_atom_site_fract_z
C1  1.239512350896E-01  4.109207760237E-02  4.084246098364E-01
C2 -1.239512350896E-01 -4.109207760237E-02 -4.084246098364E-01
C3 -2.378014175344E-02 -2.680467412751E-01  2.811411971465E-01
C4  2.378014175344E-02  2.680467412751E-01 -2.811411971465E-01
C5  3.587936807071E-02 -1.769366048103E-01  3.733992678815E-01
C6 -3.587936807071E-02  1.769366048103E-01 -3.733992678815E-01
C7  1.496072053079E-01  1.610767803550E-01  3.500558220790E-01
C8 -1.496072053079E-01 -1.610767803550E-01 -3.500558220790E-01
C9  9.131208749189E-02  7.087647564109E-02  2.524989591483E-01
C10 -9.131208749189E-02 -7.087647564109E-02 -2.524989591483E-01
C11  1.190525780053E-01  1.876365409137E-01  1.920096862716E-01
C12 -1.190525780053E-01 -1.876365409137E-01 -1.920096862716E-01
C13  6.060996456601E-02  9.710577023461E-02  9.600556332239E-02
C14 -6.060996456601E-02 -9.710577023461E-02 -9.600556332239E-02
C15  8.809352402755E-02  2.136559548310E-01  3.437725396987E-02
C16 -8.809352402755E-02 -2.136559548310E-01 -3.437725396987E-02
C17 -2.955810394679E-02 -1.228971944974E-01  6.063022765790E-02
C18  2.955810394679E-02  1.228971944974E-01 -6.063022765790E-02
C19 -5.636133317162E-02 -2.399928927576E-01  1.232372880076E-01
C20  5.636133317162E-02  2.399928927576E-01 -1.232372880076E-01
C21  2.095453140425E-03 -1.493570631538E-01  2.172101301798E-01
C22 -2.095453140425E-03  1.493570631538E-01 -2.172101301798E-01
H23  1.702748394560E-01  1.117864793981E-01  4.831788807709E-01
H24 -1.702748394560E-01 -1.117864793981E-01 -4.831788807709E-01
H25 -9.252585397844E-02 -4.347333568139E-01  2.541081118679E-01
H26  9.252585397844E-02  4.347333568139E-01 -2.541081118679E-01
H27  1.528079554275E-02 -2.707680387412E-01  4.215019108984E-01
H28 -1.528079554275E-02  2.707680387412E-01 -4.215019108984E-01
H29  2.147599190647E-01  3.302247160361E-01  3.762000783894E-01
H30 -2.147599190647E-01 -3.302247160361E-01 -3.762000783894E-01
H31  1.882675611364E-01  3.544033819459E-01  2.189122366901E-01
H32 -1.882675611364E-01 -3.544033819459E-01 -2.189122366901E-01
H33  1.569604279660E-01  3.806047185277E-01  6.122498112140E-02
H34 -1.569604279660E-01 -3.806047185277E-01 -6.122498112140E-02
H35 -1.246959487002E-01 -4.072499260893E-01  9.634586307977E-02
H36  1.246959487002E-01  4.072499260893E-01 -9.634586307977E-02
C37 -4.522035909503E-01 -4.289503543043E-01  3.986571061144E-01
C38  4.522035909503E-01  4.289503543043E-01 -3.986571061144E-01
C39  4.912979137136E-01 -3.145859667926E-01  3.268902247385E-01
C40 -4.912979137136E-01  3.145859667926E-01 -3.268902247385E-01
C41 -4.900541306177E-01 -4.134661832609E-01  2.409541749339E-01
C42  4.900541306177E-01  4.134661832609E-01 -2.409541749339E-01
C43  4.546453654639E-01 -3.000180317461E-01  1.671538845900E-01
C44 -4.546453654639E-01  3.000180317461E-01 -1.671538845900E-01
C45  4.758888186447E-01 -3.970217338955E-01  8.314655839806E-02
C46 -4.758888186447E-01  3.970217338955E-01 -8.314655839806E-02
C47  4.220587967085E-01 -2.823574817314E-01  8.632257826492E-03
C48 -4.220587967085E-01  2.823574817314E-01 -8.632257826492E-03
C49 -4.444062359526E-01  3.789149171704E-01  7.422219989405E-02
C50  4.444062359526E-01 -3.789149171704E-01 -7.422219989405E-02
C51 -3.896249355940E-01  2.647411827821E-01  1.499519046584E-01
C52  3.896249355940E-01 -2.647411827821E-01 -1.499519046584E-01
C53 -4.103769999229E-01  3.626356260198E-01  2.321126443608E-01
C54  4.103769999229E-01 -3.626356260198E-01 -2.321126443608E-01
C55 -3.524085668180E-01  2.495087252143E-01  3.098334956512E-01
C56  3.524085668180E-01 -2.495087252143E-01 -3.098334956512E-01
C57 -3.728987340113E-01  3.500589234904E-01  3.900687829506E-01
C58  3.728987340113E-01 -3.500589234904E-01 -3.900687829506E-01
H59 -4.666748536160E-01 -3.503202083941E-01  4.642839190963E-01
H60  4.666748536160E-01  3.503202083941E-01 -4.642839190963E-01
H61  4.309935260664E-01 -1.444344219982E-01  3.338733239780E-01
H62 -4.309935260664E-01  1.444344219982E-01 -3.338733239780E-01
H63  3.937019495406E-01 -1.299901600696E-01  1.739389778691E-01
H64 -3.937019495406E-01  1.299901600696E-01 -1.739389778691E-01
H65  3.608886435658E-01 -1.124576464332E-01  1.543128111114E-02
H66 -3.608886435658E-01  1.124576464332E-01 -1.543128111114E-02
H67 -3.282597149086E-01  9.490448113471E-02  1.432352171024E-01
H68  3.282597149086E-01 -9.490448113471E-02 -1.432352171024E-01
H69 -2.901107678802E-01  8.040106809859E-02  3.034096985668E-01
H70  2.901107678802E-01 -8.040106809859E-02 -3.034096985668E-01
H71 -3.276394766321E-01  2.620884058825E-01  4.493562909117E-01
H72  3.276394766321E-01 -2.620884058825E-01 -4.493562909117E-01


#===END

data_OPT_STEP_72

_symmetry_space_group_name_H-M 'P 1'
_cell_length_a      7.96905324
_cell_length_b      6.08069040
_cell_length_c     16.06929303
_cell_angle_alpha  101.612402
_cell_angle_beta  112.605070
_cell_angle_gamma   85.882844

loop_
_atom_site_label
_atom_site_fract_x
_atom_site_fract_y
_atom_site_fract_z
C1  1.239548788447E-01  4.109288346655E-02  4.084238231763E-01
C2 -1.239548788447E-01 -4.109288346655E-02 -4.084238231763E-01
C3 -2.377581880395E-02 -2.680450227238E-01  2.811388959008E-01
C4  2.377581880395E-02  2.680450227238E-01 -2.811388959008E-01
C5  3.588299618769E-02 -1.769348629097E-01  3.733972274924E-01
C6 -3.588299618769E-02  1.769348629097E-01 -3.733972274924E-01
C7  1.496088369863E-01  1.610791068962E-01  3.500558847405E-01
C8 -1.496088369863E-01 -1.610791068962E-01 -3.500558847405E-01
C9  9.131278230442E-02  7.087863350168E-02  2.524988177916E-01
C10 -9.131278230442E-02 -7.087863350168E-02 -2.524988177916E-01
C11  1.190519439606E-01  1.876368966082E-01  1.920097778558E-01
C12 -1.190519439606E-01 -1.876368966082E-01 -1.920097778558E-01
C13  6.060892299082E-02  9.710564105711E-02  9.600561115383E-02
C14 -6.060892299082E-02 -9.710564105711E-02 -9.600561115383E-02
C15  8.809043232088E-02  2.136552275192E-01  3.437811151253E-02
C16 -8.809043232088E-02 -2.136552275192E-01 -3.437811151253E-02
C17 -2.955513433913E-02 -1.228967223620E-01  6.062965337866E-02
C18  2.955513433913E-02  1.228967223620E-01 -6.062965337866E-02
C19 -5.635756548032E-02 -2.399913016804E-01  1.232358700577E-01
C20  5.635756548032E-02  2.399913016804E-01 -1.232358700577E-01
C21  2.099360863579E-03 -1.493555885675E-01  2.172089600636E-01
C22 -2.099360863579E-03  1.493555885675E-01 -2.172089600636E-01
H23  1.702794181504E-01  1.117859220436E-01  4.831783597274E-01
H24 -1.702794181504E-01 -1.117859220436E-01 -4.831783597274E-01
H25 -9.252050643994E-02 -4.347316115681E-01  2.541050246780E-01
H26  9.252050643994E-02  4.347316115681E-01 -2.541050246780E-01
H27  1.528821567073E-02 -2.707718175756E-01  4.214984024521E-01
H28 -1.528821567073E-02  2.707718175756E-01 -4.214984024521E-01
H29  2.147625031702E-01  3.302260875016E-01  3.762001021845E-01
H30 -2.147625031702E-01 -3.302260875016E-01 -3.762001021845E-01
H31  1.882646527290E-01  3.544029370995E-01  2.189127843746E-01
H32 -1.882646527290E-01 -3.544029370995E-01 -2.189127843746E-01
H33  1.569549057896E-01  3.806034031748E-01  6.122690541947E-02
H34 -1.569549057896E-01 -3.806034031748E-01 -6.122690541947E-02
H35 -1.246903468868E-01 -4.072488429294E-01  9.634376096807E-02
H36  1.246903468868E-01  4.072488429294E-01 -9.634376096807E-02
C37 -4.522004324634E-01 -4.289531150265E-01  3.986570126872E-01
C38  4.522004324634E-01  4.289531150265E-01 -3.986570126872E-01
C39  4.912991382196E-01 -3.145924984420E-01  3.268906317413E-01
C40 -4.912991382196E-01  3.145924984420E-01 -3.268906317413E-01
C41 -4.900521418267E-01 -4.134699789141E-01  2.409544101618E-01
C42  4.900521418267E-01  4.134699789141E-01 -2.409544101618E-01
C43  4.546472936387E-01 -3.000242940670E-01  1.671550627138E-01
C44 -4.546472936387E-01  3.000242940670E-01 -1.671550627138E-01
C45  4.758902008365E-01 -3.970249976713E-01  8.314728455373E-02
C46 -4.758902008365E-01  3.970249976713E-01 -8.314728455373E-02
C47  4.220602387352E-01 -2.823630691164E-01  8.633858706697E-03
C48 -4.220602387352E-01  2.823630691164E-01 -8.633858706697E-03
C49 -4.444053476755E-01  3.789175851993E-01  7.422148861304E-02
C50  4.444053476755E-01 -3.789175851993E-01 -7.422148861304E-02
C51 -3.896247957953E-01  2.647461632358E-01  1.499502738039E-01
C52  3.896247957953E-01 -2.647461632358E-01 -1.499502738039E-01
C53 -4.103735432389E-01  3.626379736944E-01  2.321118221265E-01
C54  4.103735432389E-01 -3.626379736944E-01 -2.321118221265E-01
C55 -3.524064908718E-01  2.495133067411E-01  3.098318553378E-01
C56  3.524064908718E-01 -2.495133067411E-01 -3.098318553378E-01
C57 -3.728952971527E-01  3.500606329002E-01  3.900676089509E-01
C58  3.728952971527E-01 -3.500606329002E-01 -3.900676089509E-01
H59 -4.666752435743E-01 -3.503239658045E-01  4.642839271746E-01
H60  4.666752435743E-01  3.503239658045E-01 -4.642839271746E-01
H61  4.309971327298E-01 -1.444436457423E-01  3.338751725914E-01
H62 -4.309971327298E-01  1.444436457423E-01 -3.338751725914E-01
H63  3.937049396315E-01 -1.300008154477E-01  1.739413331002E-01
H64 -3.937049396315E-01  1.300008154477E-01 -1.739413331002E-01
H65  3.608903645692E-01 -1.124676928626E-01  1.543382968571E-02
H66 -3.608903645692E-01  1.124676928626E-01 -1.543382968571E-02
H67 -3.282607063684E-01  9.491330091275E-02  1.432323081559E-01
H68  3.282607063684E-01 -9.491330091275E-02 -1.432323081559E-01
H69 -2.901099605911E-01  8.040939908164E-02  3.034068705290E-01
H70  2.901099605911E-01 -8.040939908164E-02 -3.034068705290E-01
H71 -3.276367943779E-01  2.620919620226E-01  4.493544121492E-01
H72  3.276367943779E-01 -2.620919620226E-01 -4.493544121492E-01


#===END

data_OPT_STEP_73

_symmetry_space_group_name_H-M 'P 1'
_cell_length_a      7.96839854
_cell_length_b      6.08053037
_cell_length_c     16.06871093
_cell_angle_alpha  101.608976
_cell_angle_beta  112.589076
_cell_angle_gamma   85.885330

loop_
_atom_site_label
_atom_site_fract_x
_atom_site_fract_y
_atom_site_fract_z
C1  1.239734859850E-01  4.109077475449E-02  4.084220972342E-01
C2 -1.239734859850E-01 -4.109077475449E-02 -4.084220972342E-01
C3 -2.374574333230E-02 -2.680520932383E-01  2.811633812867E-01
C4  2.374574333230E-02  2.680520932383E-01 -2.811633812867E-01
C5  3.591190480683E-02 -1.769411172548E-01  3.734137276784E-01
C6 -3.591190480683E-02  1.769411172548E-01 -3.734137276784E-01
C7  1.496212089741E-01  1.610800396281E-01  3.500447235616E-01
C8 -1.496212089741E-01 -1.610800396281E-01 -3.500447235616E-01
C9  9.132527194606E-02  7.087914237536E-02  2.524948386589E-01
C10 -9.132527194606E-02 -7.087914237536E-02 -2.524948386589E-01
C11  1.190526376310E-01  1.876408975973E-01  1.919945267985E-01
C12 -1.190526376310E-01 -1.876408975973E-01 -1.919945267985E-01
C13  6.060950577451E-02  9.710799359612E-02  9.599764042070E-02
C14 -6.060950577451E-02 -9.710799359612E-02 -9.599764042070E-02
C15  8.808171503876E-02  2.136588426459E-01  3.435881800733E-02
C16 -8.808171503876E-02 -2.136588426459E-01 -3.435881800733E-02
C17 -2.954659531528E-02 -1.228975810771E-01  6.064117111646E-02
C18  2.954659531528E-02  1.228975810771E-01 -6.064117111646E-02
C19 -5.633882309203E-02 -2.399946645219E-01  1.232581359445E-01
C20  5.633882309203E-02  2.399946645219E-01 -1.232581359445E-01
C21  2.119245352308E-03 -1.493577144846E-01  2.172234900617E-01
C22 -2.119245352308E-03  1.493577144846E-01 -2.172234900617E-01
H23  1.702973179514E-01  1.117820822010E-01  4.831707663279E-01
H24 -1.702973179514E-01 -1.117820822010E-01 -4.831707663279E-01
H25 -9.248604708746E-02 -4.347396372274E-01  2.541428623554E-01
H26  9.248604708746E-02  4.347396372274E-01 -2.541428623554E-01
H27  1.532087708139E-02 -2.707786864687E-01  4.215225645933E-01
H28 -1.532087708139E-02  2.707786864687E-01 -4.215225645933E-01
H29  2.147700411668E-01  3.302290803210E-01  3.761751505883E-01
H30 -2.147700411668E-01 -3.302290803210E-01 -3.761751505883E-01
H31  1.882574989229E-01  3.544102734492E-01  2.188818356844E-01
H32 -1.882574989229E-01 -3.544102734492E-01 -2.188818356844E-01
H33  1.569402210775E-01  3.806094590232E-01  6.119217051420E-02
H34 -1.569402210775E-01 -3.806094590232E-01 -6.119217051420E-02
H35 -1.246690294821E-01 -4.072520039180E-01  9.638095893435E-02
H36  1.246690294821E-01  4.072520039180E-01 -9.638095893435E-02
C37 -4.521679253051E-01 -4.289374168658E-01  3.986686771455E-01
C38  4.521679253051E-01  4.289374168658E-01 -3.986686771455E-01
C39  4.913241114414E-01 -3.145775888815E-01  3.269042246106E-01
C40 -4.913241114414E-01  3.145775888815E-01 -3.269042246106E-01
C41 -4.900337254467E-01 -4.134592726922E-01  2.409630391330E-01
C42  4.900337254467E-01  4.134592726922E-01 -2.409630391330E-01
C43  4.546600218390E-01 -3.000135616249E-01  1.671656582923E-01
C44 -4.546600218390E-01  3.000135616249E-01 -1.671656582923E-01
C45  4.758968285843E-01 -3.970193124601E-01  8.315278492826E-02
C46 -4.758968285843E-01  3.970193124601E-01 -8.315278492826E-02
C47  4.220593629069E-01 -2.823592588120E-01  8.640480074716E-03
C48 -4.220593629069E-01  2.823592588120E-01 -8.640480074716E-03
C49 -4.443988854780E-01  3.789187564108E-01  7.421984463763E-02
C50  4.443988854780E-01 -3.789187564108E-01 -7.421984463763E-02
C51 -3.896109511122E-01  2.647480780769E-01  1.499470043570E-01
C52  3.896109511122E-01 -2.647480780769E-01 -1.499470043570E-01
C53 -4.103558815720E-01  3.626433120301E-01  2.321130777725E-01
C54  4.103558815720E-01 -3.626433120301E-01 -2.321130777725E-01
C55 -3.523789368798E-01  2.495209954417E-01  3.098315189676E-01
C56  3.523789368798E-01 -2.495209954417E-01 -3.098315189676E-01
C57 -3.728614879684E-01  3.500728589753E-01  3.900720810918E-01
C58  3.728614879684E-01 -3.500728589753E-01 -3.900720810918E-01
H59 -4.666368807869E-01 -3.503058247050E-01  4.642994305673E-01
H60  4.666368807869E-01  3.503058247050E-01 -4.642994305673E-01
H61  4.310196075187E-01 -1.444266056459E-01  3.338936891325E-01
H62 -4.310196075187E-01  1.444266056459E-01 -3.338936891325E-01
H63  3.937166118071E-01 -1.299868054663E-01  1.739572277189E-01
H64 -3.937166118071E-01  1.299868054663E-01 -1.739572277189E-01
H65  3.608892903154E-01 -1.124603016469E-01  1.544549189628E-02
H66 -3.608892903154E-01  1.124603016469E-01 -1.544549189628E-02
H67 -3.282460679717E-01  9.491191194073E-02  1.432238145116E-01
H68  3.282460679717E-01 -9.491191194073E-02 -1.432238145116E-01
H69 -2.900809120519E-01  8.041444600852E-02  3.034014604261E-01
H70  2.900809120519E-01 -8.041444600852E-02 -3.034014604261E-01
H71 -3.275978176947E-01  2.621043677990E-01  4.493570374191E-01
H72  3.275978176947E-01 -2.621043677990E-01 -4.493570374191E-01


#===END

data_OPT_STEP_74

_symmetry_space_group_name_H-M 'P 1'
_cell_length_a      7.96809950
_cell_length_b      6.08040897
_cell_length_c     16.06837069
_cell_angle_alpha  101.607154
_cell_angle_beta  112.578967
_cell_angle_gamma   85.888184

loop_
_atom_site_label
_atom_site_fract_x
_atom_site_fract_y
_atom_site_fract_z
C1  1.239840448058E-01  4.109244019608E-02  4.084205914576E-01
C2 -1.239840448058E-01 -4.109244019608E-02 -4.084205914576E-01
C3 -2.372764239379E-02 -2.680574827091E-01  2.811779665991E-01
C4  2.372764239379E-02  2.680574827091E-01 -2.811779665991E-01
C5  3.592733180239E-02 -1.769434401959E-01  3.734233626262E-01
C6 -3.592733180239E-02  1.769434401959E-01 -3.734233626262E-01
C7  1.496294923805E-01  1.610835478929E-01  3.500374990519E-01
C8 -1.496294923805E-01 -1.610835478929E-01 -3.500374990519E-01
C9  9.133361080778E-02  7.088045730195E-02  2.524921225615E-01
C10 -9.133361080778E-02 -7.088045730195E-02 -2.524921225615E-01
C11  1.190543041794E-01  1.876444830664E-01  1.919850747713E-01
C12 -1.190543041794E-01 -1.876444830664E-01 -1.919850747713E-01
C13  6.061071536997E-02  9.710943175383E-02  9.599284020377E-02
C14 -6.061071536997E-02 -9.710943175383E-02 -9.599284020377E-02
C15  8.807481511665E-02  2.136633679834E-01  3.434760999048E-02
C16 -8.807481511665E-02 -2.136633679834E-01 -3.434760999048E-02
C17 -2.953864956373E-02 -1.229003402332E-01  6.064793750183E-02
C18  2.953864956373E-02  1.229003402332E-01 -6.064793750183E-02
C19 -5.632506836467E-02 -2.399998203720E-01  1.232713013612E-01
C20  5.632506836467E-02  2.399998203720E-01 -1.232713013612E-01
C21  2.132854221786E-03 -1.493605311879E-01  2.172320855100E-01
C22 -2.132854221786E-03  1.493605311879E-01 -2.172320855100E-01
H23  1.703063496074E-01  1.117843645227E-01  4.831656398451E-01
H24 -1.703063496074E-01 -1.117843645227E-01 -4.831656398451E-01
H25 -9.246373164131E-02 -4.347482250988E-01  2.541658569483E-01
H26  9.246373164131E-02  4.347482250988E-01 -2.541658569483E-01
H27  1.534057955200E-02 -2.707840978211E-01  4.215367655185E-01
H28 -1.534057955200E-02  2.707840978211E-01 -4.215367655185E-01
H29  2.147777715019E-01  3.302342478052E-01  3.761593025435E-01
H30 -2.147777715019E-01 -3.302342478052E-01 -3.761593025435E-01
H31  1.882539890581E-01  3.544176487229E-01  2.188627964985E-01
H32 -1.882539890581E-01 -3.544176487229E-01 -2.188627964985E-01
H33  1.569279898266E-01  3.806176482066E-01  6.117188501475E-02
H34 -1.569279898266E-01 -3.806176482066E-01 -6.117188501475E-02
H35 -1.246526722925E-01 -4.072594080991E-01  9.640301208236E-02
H36  1.246526722925E-01  4.072594080991E-01 -9.640301208236E-02
C37 -4.521387694277E-01 -4.289302667463E-01  3.986770170381E-01
C38  4.521387694277E-01  4.289302667463E-01 -3.986770170381E-01
C39  4.913421906369E-01 -3.145751824964E-01  3.269129518498E-01
C40 -4.913421906369E-01  3.145751824964E-01 -3.269129518498E-01
C41 -4.900212146364E-01 -4.134587318006E-01  2.409684164774E-01
C42  4.900212146364E-01  4.134587318006E-01 -2.409684164774E-01
C43  4.546651820948E-01 -3.000142316080E-01  1.671723670208E-01
C44 -4.546651820948E-01  3.000142316080E-01 -1.671723670208E-01
C45  4.758995054934E-01 -3.970191453826E-01  8.315633760596E-02
C46 -4.758995054934E-01  3.970191453826E-01 -8.315633760596E-02
C47  4.220563009021E-01 -2.823594896875E-01  8.645267057059E-03
C48 -4.220563009021E-01  2.823594896875E-01 -8.645267057059E-03
C49 -4.443930059082E-01  3.789189323438E-01  7.421842944310E-02
C50  4.443930059082E-01 -3.789189323438E-01 -7.421842944310E-02
C51 -3.895999301408E-01  2.647478163741E-01  1.499441845960E-01
C52  3.895999301408E-01 -2.647478163741E-01 -1.499441845960E-01
C53 -4.103398946428E-01  3.626442019434E-01  2.321137828146E-01
C54  4.103398946428E-01 -3.626442019434E-01 -2.321137828146E-01
C55 -3.523555046909E-01  2.495237751561E-01  3.098312876444E-01
C56  3.523555046909E-01 -2.495237751561E-01 -3.098312876444E-01
C57 -3.728298311753E-01  3.500797364540E-01  3.900758484559E-01
C58  3.728298311753E-01 -3.500797364540E-01 -3.900758484559E-01
H59 -4.666033367615E-01 -3.502949892547E-01  4.643103623810E-01
H60  4.666033367615E-01  3.502949892547E-01 -4.643103623810E-01
H61  4.310355834496E-01 -1.444245833828E-01  3.339057790011E-01
H62 -4.310355834496E-01  1.444245833828E-01 -3.339057790011E-01
H63  3.937205204321E-01 -1.299873219652E-01  1.739679571624E-01
H64 -3.937205204321E-01  1.299873219652E-01 -1.739679571624E-01
H65  3.608860166476E-01 -1.124599635757E-01  1.545428929379E-02
H66 -3.608860166476E-01  1.124599635757E-01 -1.545428929379E-02
H67 -3.282342942017E-01  9.491137862480E-02  1.432169796641E-01
H68  3.282342942017E-01 -9.491137862480E-02 -1.432169796641E-01
H69 -2.900582877484E-01  8.041591176268E-02  3.033972523061E-01
H70  2.900582877484E-01 -8.041591176268E-02 -3.033972523061E-01
H71 -3.275595818411E-01  2.621141180597E-01  4.493603570075E-01
H72  3.275595818411E-01 -2.621141180597E-01 -4.493603570075E-01


#===END

data_OPT_STEP_75

_symmetry_space_group_name_H-M 'P 1'
_cell_length_a      7.96536580
_cell_length_b      6.08047393
_cell_length_c     16.06782776
_cell_angle_alpha  101.599758
_cell_angle_beta  112.529370
_cell_angle_gamma   85.874563

loop_
_atom_site_label
_atom_site_fract_x
_atom_site_fract_y
_atom_site_fract_z
C1  1.242077976401E-01  4.140656944369E-02  4.084370240342E-01
C2 -1.242077976401E-01 -4.140656944369E-02 -4.084370240342E-01
C3 -2.347484910429E-02 -2.677780271881E-01  2.813402468551E-01
C4  2.347484910429E-02  2.677780271881E-01 -2.813402468551E-01
C5  3.620977942555E-02 -1.766039416491E-01  3.735354365220E-01
C6 -3.620977942555E-02  1.766039416491E-01 -3.735354365220E-01
C7  1.497778251904E-01  1.613132446548E-01  3.500122708202E-01
C8 -1.497778251904E-01 -1.613132446548E-01 -3.500122708202E-01
C9  9.147393779822E-02  7.106669346726E-02  2.525047677517E-01
C10 -9.147393779822E-02 -7.106669346726E-02 -2.525047677517E-01
C11  1.191352777613E-01  1.877645664146E-01  1.919462227732E-01
C12 -1.191352777613E-01 -1.877645664146E-01 -1.919462227732E-01
C13  6.064264772515E-02  9.719307402234E-02  9.597390916661E-02
C14 -6.064264772515E-02 -9.719307402234E-02 -9.597390916661E-02
C15  8.806728174299E-02  2.136596557932E-01  3.424348824851E-02
C16 -8.806728174299E-02 -2.136596557932E-01 -3.424348824851E-02
C17 -2.950007024742E-02 -1.228256019842E-01  6.072068046156E-02
C18  2.950007024742E-02  1.228256019842E-01 -6.072068046156E-02
C19 -5.616839442268E-02 -2.398716508281E-01  1.234151858122E-01
C20  5.616839442268E-02  2.398716508281E-01 -1.234151858122E-01
C21  2.327170101745E-03 -1.491670685286E-01  2.173404983963E-01
C22 -2.327170101745E-03  1.491670685286E-01 -2.173404983963E-01
H23  1.705526019296E-01  1.121448312528E-01  4.831425418877E-01
H24 -1.705526019296E-01 -1.121448312528E-01 -4.831425418877E-01
H25 -9.216811056332E-02 -4.344722801663E-01  2.543916921764E-01
H26  9.216811056332E-02  4.344722801663E-01 -2.543916921764E-01
H27  1.559009894771E-02 -2.703102517187E-01  4.216800333405E-01
H28 -1.559009894771E-02  2.703102517187E-01 -4.216800333405E-01
H29  2.148471507811E-01  3.304482798589E-01  3.760743626909E-01
H30 -2.148471507811E-01 -3.304482798589E-01 -3.760743626909E-01
H31  1.883072628699E-01  3.545363288211E-01  2.187495906908E-01
H32 -1.883072628699E-01 -3.545363288211E-01 -2.187495906908E-01
H33  1.569299630480E-01  3.806158969520E-01  6.098279768941E-02
H34 -1.569299630480E-01 -3.806158969520E-01 -6.098279768941E-02
H35 -1.244214654131E-01 -4.071696911568E-01  9.661209849657E-02
H36  1.244214654131E-01  4.071696911568E-01 -9.661209849657E-02
C37 -4.521209065696E-01 -4.289746032364E-01  3.986874995108E-01
C38  4.521209065696E-01  4.289746032364E-01 -3.986874995108E-01
C39  4.913111574077E-01 -3.145953579539E-01  3.269512359153E-01
C40 -4.913111574077E-01  3.145953579539E-01 -3.269512359153E-01
C41 -4.900503227011E-01 -4.134453208983E-01  2.409945381804E-01
C42  4.900503227011E-01  4.134453208983E-01 -2.409945381804E-01
C43  4.546388053351E-01 -2.999879139277E-01  1.672096187374E-01
C44 -4.546388053351E-01  2.999879139277E-01 -1.672096187374E-01
C45  4.758674015861E-01 -3.970165611069E-01  8.317066213023E-02
C46 -4.758674015861E-01  3.970165611069E-01 -8.317066213023E-02
C47  4.220367066933E-01 -2.823511644192E-01  8.665430171645E-03
C48 -4.220367066933E-01  2.823511644192E-01 -8.665430171645E-03
C49 -4.444233512292E-01  3.789091383033E-01  7.421131666810E-02
C50  4.444233512292E-01 -3.789091383033E-01 -7.421131666810E-02
C51 -3.895905102787E-01  2.647641423249E-01  1.499328144384E-01
C52  3.895905102787E-01 -2.647641423249E-01 -1.499328144384E-01
C53 -4.103979309699E-01  3.626382733526E-01  2.321017605786E-01
C54  4.103979309699E-01 -3.626382733526E-01 -2.321017605786E-01
C55 -3.523672142592E-01  2.495201677461E-01  3.097939821056E-01
C56  3.523672142592E-01 -2.495201677461E-01 -3.097939821056E-01
C57 -3.728149264564E-01  3.500624252770E-01  3.900435955575E-01
C58  3.728149264564E-01 -3.500624252770E-01 -3.900435955575E-01
H59 -4.665456263519E-01 -3.504299634640E-01  4.643258993966E-01
H60  4.665456263519E-01  3.504299634640E-01 -4.643258993966E-01
H61  4.309112017569E-01 -1.444779809340E-01  3.339558679041E-01
H62 -4.309112017569E-01  1.444779809340E-01 -3.339558679041E-01
H63  3.936414326968E-01 -1.299498835424E-01  1.740054446930E-01
H64 -3.936414326968E-01  1.299498835424E-01 -1.740054446930E-01
H65  3.607729650904E-01 -1.124456301797E-01  1.547579115383E-02
H66 -3.607729650904E-01  1.124456301797E-01 -1.547579115383E-02
H67 -3.281821344985E-01  9.491304216595E-02  1.431807405772E-01
H68  3.281821344985E-01 -9.491304216595E-02 -1.431807405772E-01
H69 -2.900780144796E-01  8.039771762564E-02  3.033184031158E-01
H70  2.900780144796E-01 -8.039771762564E-02 -3.033184031158E-01
H71 -3.275775081499E-01  2.620442418882E-01  4.492831800354E-01
H72  3.275775081499E-01 -2.620442418882E-01 -4.492831800354E-01


#===END

data_OPT_STEP_76

_symmetry_space_group_name_H-M 'P 1'
_cell_length_a      7.96689817
_cell_length_b      6.08035470
_cell_length_c     16.06580897
_cell_angle_alpha  101.599159
_cell_angle_beta  112.547686
_cell_angle_gamma   85.917924

loop_
_atom_site_label
_atom_site_fract_x
_atom_site_fract_y
_atom_site_fract_z
C1  1.239182097470E-01  4.103973310394E-02  4.084058293993E-01
C2 -1.239182097470E-01 -4.103973310394E-02 -4.084058293993E-01
C3 -2.376563767658E-02 -2.681093459199E-01  2.811703858540E-01
C4  2.376563767658E-02  2.681093459199E-01 -2.811703858540E-01
C5  3.582592526791E-02 -1.770048802649E-01  3.734345960561E-01
C6 -3.582592526791E-02  1.770048802649E-01 -3.734345960561E-01
C7  1.495939049903E-01  1.610978141848E-01  3.499786147391E-01
C8 -1.495939049903E-01 -1.610978141848E-01 -3.499786147391E-01
C9  9.126988304575E-02  7.087721325945E-02  2.524315939381E-01
C10 -9.126988304575E-02 -7.087721325945E-02 -2.524315939381E-01
C11  1.189261099493E-01  1.876610805181E-01  1.918863737716E-01
C12 -1.189261099493E-01 -1.876610805181E-01 -1.918863737716E-01
C13  6.057284048989E-02  9.705763555888E-02  9.593883806012E-02
C14 -6.057284048989E-02 -9.705763555888E-02 -9.593883806012E-02
C15  8.789074387083E-02  2.136770218274E-01  3.433635755465E-02
C16 -8.789074387083E-02 -2.136770218274E-01 -3.433635755465E-02
C17 -2.940272102012E-02 -1.229259612630E-01  6.064191440529E-02
C18  2.940272102012E-02  1.229259612630E-01 -6.064191440529E-02
C19 -5.628582078682E-02 -2.399988034774E-01  1.232535048896E-01
C20  5.628582078682E-02  2.399988034774E-01 -1.232535048896E-01
C21  2.082579943742E-03 -1.493573438330E-01  2.172035211239E-01
C22 -2.082579943742E-03  1.493573438330E-01 -2.172035211239E-01
H23  1.702210348856E-01  1.116975848051E-01  4.831688155726E-01
H24 -1.702210348856E-01 -1.116975848051E-01 -4.831688155726E-01
H25 -9.254191488114E-02 -4.347480109395E-01  2.541962535625E-01
H26  9.254191488114E-02  4.347480109395E-01 -2.541962535625E-01
H27  1.540586175287E-02 -2.710429652707E-01  4.215795384865E-01
H28 -1.540586175287E-02  2.710429652707E-01 -4.215795384865E-01
H29  2.148806495301E-01  3.302216650249E-01  3.760731815420E-01
H30 -2.148806495301E-01 -3.302216650249E-01 -3.760731815420E-01
H31  1.880683765159E-01  3.544303325731E-01  2.187270954237E-01
H32 -1.880683765159E-01 -3.544303325731E-01 -2.187270954237E-01
H33  1.566122553419E-01  3.806219422867E-01  6.115389682917E-02
H34 -1.566122553419E-01 -3.806219422867E-01 -6.115389682917E-02
H35 -1.246777596925E-01 -4.071535339905E-01  9.643507984854E-02
H36  1.246777596925E-01  4.071535339905E-01 -9.643507984854E-02
C37 -4.519867885742E-01 -4.289379028415E-01  3.987002965562E-01
C38  4.519867885742E-01  4.289379028415E-01 -3.987002965562E-01
C39  4.914731298701E-01 -3.146229921728E-01  3.269033429974E-01
C40 -4.914731298701E-01  3.146229921728E-01 -3.269033429974E-01
C41 -4.899046058160E-01 -4.135415494914E-01  2.409473299977E-01
C42  4.899046058160E-01  4.135415494914E-01 -2.409473299977E-01
C43  4.547037618471E-01 -3.001044623168E-01  1.671620845430E-01
C44 -4.547037618471E-01  3.001044623168E-01 -1.671620845430E-01
C45  4.759668464676E-01 -3.970255826563E-01  8.316473760556E-02
C46 -4.759668464676E-01  3.970255826563E-01 -8.316473760556E-02
C47  4.220313006780E-01 -2.823713194030E-01  8.671571787791E-03
C48 -4.220313006780E-01  2.823713194030E-01 -8.671571787791E-03
C49 -4.442383376603E-01  3.789379516642E-01  7.419985743326E-02
C50  4.442383376603E-01 -3.789379516642E-01 -7.419985743326E-02
C51 -3.895021456155E-01  2.646658966489E-01  1.498944875451E-01
C52  3.895021456155E-01 -2.646658966489E-01 -1.498944875451E-01
C53 -4.100860203398E-01  3.625901858968E-01  2.320992942971E-01
C54  4.100860203398E-01 -3.625901858968E-01 -2.320992942971E-01
C55 -3.521947555894E-01  2.493809864851E-01  3.098201958940E-01
C56  3.521947555894E-01 -2.493809864851E-01 -3.098201958940E-01
C57 -3.726634772682E-01  3.499654661486E-01  3.901021035090E-01
C58  3.726634772682E-01 -3.499654661486E-01 -3.901021035090E-01
H59 -4.664412939929E-01 -3.501169590916E-01  4.643786218021E-01
H60  4.664412939929E-01  3.501169590916E-01 -4.643786218021E-01
H61  4.313422143312E-01 -1.443936916425E-01  3.339355731329E-01
H62 -4.313422143312E-01  1.443936916425E-01 -3.339355731329E-01
H63  3.938441782418E-01 -1.300930752192E-01  1.740147872429E-01
H64 -3.938441782418E-01  1.300930752192E-01 -1.740147872429E-01
H65  3.610552755993E-01 -1.124701550049E-01  1.553303882042E-02
H66 -3.610552755993E-01  1.124701550049E-01 -1.553303882042E-02
H67 -3.282199129056E-01  9.484332575572E-02  1.431595423770E-01
H68  3.282199129056E-01 -9.484332575572E-02 -1.431595423770E-01
H69 -2.898979679015E-01  8.026815466762E-02  3.034026455888E-01
H70  2.898979679015E-01 -8.026815466762E-02 -3.034026455888E-01
H71 -3.272524686632E-01  2.620974638468E-01  4.494599188193E-01
H72  3.272524686632E-01 -2.620974638468E-01 -4.494599188193E-01


#===END

data_OPT_STEP_77

_symmetry_space_group_name_H-M 'P 1'
_cell_length_a      7.96554012
_cell_length_b      6.08045378
_cell_length_c     16.06695943
_cell_angle_alpha  101.598928
_cell_angle_beta  112.530728
_cell_angle_gamma   85.884731

loop_
_atom_site_label
_atom_site_fract_x
_atom_site_fract_y
_atom_site_fract_z
C1  1.241460280810E-01  4.134856019416E-02  4.084317004068E-01
C2 -1.241460280810E-01 -4.134856019416E-02 -4.084317004068E-01
C3 -2.352562527219E-02 -2.678249687329E-01  2.813044191809E-01
C4  2.352562527219E-02  2.678249687329E-01 -2.813044191809E-01
C5  3.611670970020E-02 -1.766614799622E-01  3.735221055491E-01
C6 -3.611670970020E-02  1.766614799622E-01 -3.735221055491E-01
C7  1.497423516558E-01  1.612966113157E-01  3.499915835113E-01
C8 -1.497423516558E-01 -1.612966113157E-01 -3.499915835113E-01
C9  9.142437128316E-02  7.104378366197E-02  2.524732547209E-01
C10 -9.142437128316E-02 -7.104378366197E-02 -2.524732547209E-01
C11  1.190706418912E-01  1.877498351492E-01  1.919068304440E-01
C12 -1.190706418912E-01 -1.877498351492E-01 -1.919068304440E-01
C13  6.063054102616E-02  9.714923369602E-02  9.595172805502E-02
C14 -6.063054102616E-02 -9.714923369602E-02 -9.595172805502E-02
C15  8.799238368019E-02  2.136445195664E-01  3.426263851026E-02
C16 -8.799238368019E-02 -2.136445195664E-01 -3.426263851026E-02
C17 -2.943914612850E-02 -1.228348038125E-01  6.070176469002E-02
C18  2.943914612850E-02  1.228348038125E-01 -6.070176469002E-02
C19 -5.617343357480E-02 -2.398686544891E-01  1.233752522935E-01
C20  5.617343357480E-02  2.398686544891E-01 -1.233752522935E-01
C21  2.273998223093E-03 -1.491777998669E-01  2.173041861010E-01
C22 -2.273998223093E-03  1.491777998669E-01 -2.173041861010E-01
H23  1.704831641117E-01  1.120643596863E-01  4.831565084030E-01
H24 -1.704831641117E-01 -1.120643596863E-01 -4.831565084030E-01
H25 -9.224535027501E-02 -4.344846141608E-01  2.543635206497E-01
H26  9.224535027501E-02  4.344846141608E-01 -2.543635206497E-01
H27  1.558765423700E-02 -2.704834745525E-01  4.216773231922E-01
H28 -1.558765423700E-02  2.704834745525E-01 -4.216773231922E-01
H29  2.148958124367E-01  3.304157871015E-01  3.760575837384E-01
H30 -2.148958124367E-01 -3.304157871015E-01 -3.760575837384E-01
H31  1.882357756988E-01  3.544993895236E-01  2.187136654451E-01
H32 -1.882357756988E-01 -3.544993895236E-01 -2.187136654451E-01
H33  1.568076189897E-01  3.805747069096E-01  6.101734560830E-02
H34 -1.568076189897E-01 -3.805747069096E-01 -6.101734560830E-02
H35 -1.244675116066E-01 -4.070988983145E-01  9.658596153338E-02
H36  1.244675116066E-01  4.070988983145E-01 -9.658596153338E-02
C37 -4.521129810295E-01 -4.289656981663E-01  3.986831441617E-01
C38  4.521129810295E-01  4.289656981663E-01 -3.986831441617E-01
C39  4.913232053577E-01 -3.145975092990E-01  3.269237956809E-01
C40 -4.913232053577E-01  3.145975092990E-01 -3.269237956809E-01
C41 -4.900294558556E-01 -4.134688672243E-01  2.409673232547E-01
C42  4.900294558556E-01  4.134688672243E-01 -2.409673232547E-01
C43  4.546289490085E-01 -3.000153563499E-01  1.671840318133E-01
C44 -4.546289490085E-01  3.000153563499E-01 -1.671840318133E-01
C45  4.758896985045E-01 -3.970058444236E-01  8.316544049502E-02
C46 -4.758896985045E-01  3.970058444236E-01 -8.316544049502E-02
C47  4.220176056862E-01 -2.823502942234E-01  8.665941031629E-03
C48 -4.220176056862E-01  2.823502942234E-01 -8.665941031629E-03
C49 -4.443430368743E-01  3.789265510968E-01  7.420415248945E-02
C50  4.443430368743E-01 -3.789265510968E-01 -7.420415248945E-02
C51 -3.895600808398E-01  2.647237820470E-01  1.499111791711E-01
C52  3.895600808398E-01 -2.647237820470E-01 -1.499111791711E-01
C53 -4.102871337588E-01  3.626246315762E-01  2.320918549453E-01
C54  4.102871337588E-01 -3.626246315762E-01 -2.320918549453E-01
C55 -3.523264466209E-01  2.494441434522E-01  3.097891969345E-01
C56  3.523264466209E-01 -2.494441434522E-01 -3.097891969345E-01
C57 -3.727927408912E-01  3.499978002443E-01  3.900528922248E-01
C58  3.727927408912E-01 -3.499978002443E-01 -3.900528922248E-01
H59 -4.665418240023E-01 -3.503137821372E-01  4.643456148536E-01
H60  4.665418240023E-01  3.503137821372E-01 -4.643456148536E-01
H61  4.310233484471E-01 -1.444296346552E-01  3.339460615262E-01
H62 -4.310233484471E-01  1.444296346552E-01 -3.339460615262E-01
H63  3.936861868969E-01 -1.299794017169E-01  1.740056824556E-01
H64 -3.936861868969E-01  1.299794017169E-01 -1.740056824556E-01
H65  3.608612222001E-01 -1.124444499338E-01  1.549345006267E-02
H66 -3.608612222001E-01  1.124444499338E-01 -1.549345006267E-02
H67 -3.281938551677E-01  9.488027814554E-02  1.431700506084E-01
H68  3.281938551677E-01 -9.488027814554E-02 -1.431700506084E-01
H69 -2.900314472206E-01  8.031559032774E-02  3.033337104161E-01
H70  2.900314472206E-01 -8.031559032774E-02 -3.033337104161E-01
H71 -3.274842858109E-01  2.620268020838E-01  4.493390916808E-01
H72  3.274842858109E-01 -2.620268020838E-01 -4.493390916808E-01


#===END

data_OPT_STEP_78

_symmetry_space_group_name_H-M 'P 1'
_cell_length_a      7.96605804
_cell_length_b      6.08038124
_cell_length_c     16.06720029
_cell_angle_alpha  101.599237
_cell_angle_beta  112.536779
_cell_angle_gamma   85.894670

loop_
_atom_site_label
_atom_site_fract_x
_atom_site_fract_y
_atom_site_fract_z
C1  1.240771117694E-01  4.124948281392E-02  4.084193716227E-01
C2 -1.240771117694E-01 -4.124948281392E-02 -4.084193716227E-01
C3 -2.360334601860E-02 -2.679357855821E-01  2.812685779792E-01
C4  2.360334601860E-02  2.679357855821E-01 -2.812685779792E-01
C5  3.605240047452E-02 -1.767852913329E-01  3.734879477329E-01
C6 -3.605240047452E-02  1.767852913329E-01 -3.734879477329E-01
C7  1.496919165049E-01  1.612121454278E-01  3.499995824785E-01
C8 -1.496919165049E-01 -1.612121454278E-01 -3.499995824785E-01
C9  9.138390295706E-02  7.097743716197E-02  2.524784837828E-01
C10 -9.138390295706E-02 -7.097743716197E-02 -2.524784837828E-01
C11  1.190535111019E-01  1.877144535296E-01  1.919306400198E-01
C12 -1.190535111019E-01 -1.877144535296E-01 -1.919306400198E-01
C13  6.060772103281E-02  9.714351847758E-02  9.596457696257E-02
C14 -6.060772103281E-02 -9.714351847758E-02 -9.596457696257E-02
C15  8.802112874566E-02  2.136752751388E-01  3.428127762355E-02
C16 -8.802112874566E-02 -2.136752751388E-01 -3.428127762355E-02
C17 -2.948637392526E-02 -1.228761618777E-01  6.068871980275E-02
C18  2.948637392526E-02  1.228761618777E-01 -6.068871980275E-02
C19 -5.623457296764E-02 -2.399458262184E-01  1.233498983879E-01
C20  5.623457296764E-02  2.399458262184E-01 -1.233498983879E-01
C21  2.222750312370E-03 -1.492703818607E-01  2.172852796400E-01
C22 -2.222750312370E-03  1.492703818607E-01 -2.172852796400E-01
H23  1.704068202014E-01  1.119601474378E-01  4.831459406131E-01
H24 -1.704068202014E-01 -1.119601474378E-01 -4.831459406131E-01
H25 -9.231905480707E-02 -4.346252506893E-01  2.543071124761E-01
H26  9.231905480707E-02  4.346252506893E-01 -2.543071124761E-01
H27  1.550243156803E-02 -2.706011418300E-01  4.216328411407E-01
H28 -1.550243156803E-02  2.706011418300E-01 -4.216328411407E-01
H29  2.148373464972E-01  3.303522860236E-01  3.760742991338E-01
H30 -2.148373464972E-01 -3.303522860236E-01 -3.760742991338E-01
H31  1.882073127260E-01  3.544999716536E-01  2.187525367978E-01
H32 -1.882073127260E-01 -3.544999716536E-01 -2.187525367978E-01
H33  1.568293651426E-01  3.806376138755E-01  6.105246923821E-02
H34 -1.568293651426E-01 -3.806376138755E-01 -6.105246923821E-02
H35 -1.245355905911E-01 -4.072069154773E-01  9.653333633124E-02
H36  1.245355905911E-01  4.072069154773E-01 -9.653333633124E-02
C37 -4.520509002620E-01 -4.289655708361E-01  3.986937268598E-01
C38  4.520509002620E-01  4.289655708361E-01 -3.986937268598E-01
C39  4.914056083109E-01 -3.146105025057E-01  3.269404311169E-01
C40 -4.914056083109E-01  3.146105025057E-01 -3.269404311169E-01
C41 -4.899721275453E-01 -4.134866986551E-01  2.409837560789E-01
C42  4.899721275453E-01  4.134866986551E-01 -2.409837560789E-01
C43  4.546863300690E-01 -3.000395524797E-01  1.671977446030E-01
C44 -4.546863300690E-01  3.000395524797E-01 -1.671977446030E-01
C45  4.759134472828E-01 -3.970288444210E-01  8.317054651061E-02
C46 -4.759134472828E-01  3.970288444210E-01 -8.317054651061E-02
C47  4.220378110393E-01 -2.823679155270E-01  8.667610554807E-03
C48 -4.220378110393E-01  2.823679155270E-01 -8.667610554807E-03
C49 -4.443619428152E-01  3.789164516234E-01  7.420893687982E-02
C50  4.443619428152E-01 -3.789164516234E-01 -7.420893687982E-02
C51 -3.895486597770E-01  2.647352414942E-01  1.499237748175E-01
C52  3.895486597770E-01 -2.647352414942E-01 -1.499237748175E-01
C53 -4.102793814332E-01  3.626198162887E-01  2.321051933949E-01
C54  4.102793814332E-01 -3.626198162887E-01 -2.321051933949E-01
C55 -3.522876593851E-01  2.494838202317E-01  3.098089651668E-01
C56  3.522876593851E-01 -2.494838202317E-01 -3.098089651668E-01
C57 -3.727441421506E-01  3.500377510012E-01  3.900670305655E-01
C58  3.727441421506E-01 -3.500377510012E-01 -3.900670305655E-01
H59 -4.665040350753E-01 -3.503304787068E-01  4.643366373493E-01
H60  4.665040350753E-01  3.503304787068E-01 -4.643366373493E-01
H61  4.311010203993E-01 -1.444573533631E-01  3.339536247890E-01
H62 -4.311010203993E-01  1.444573533631E-01 -3.339536247890E-01
H63  3.937354871850E-01 -1.300156752781E-01  1.740123442847E-01
H64 -3.937354871850E-01  1.300156752781E-01 -1.740123442847E-01
H65  3.608701617464E-01 -1.124673283016E-01  1.549616685960E-02
H66 -3.608701617464E-01  1.124673283016E-01 -1.549616685960E-02
H67 -3.281861146765E-01  9.489605991832E-02  1.431764846738E-01
H68  3.281861146765E-01 -9.489605991832E-02 -1.431764846738E-01
H69 -2.899957243767E-01  8.036991753357E-02  3.033550415356E-01
H70  2.899957243767E-01 -8.036991753357E-02 -3.033550415356E-01
H71 -3.274565365990E-01  2.620718804292E-01  4.493441761240E-01
H72  3.274565365990E-01 -2.620718804292E-01 -4.493441761240E-01


#===END

data_OPT_STEP_79

_symmetry_space_group_name_H-M 'P 1'
_cell_length_a      7.96757676
_cell_length_b      6.08023059
_cell_length_c     16.06778323
_cell_angle_alpha  101.603985
_cell_angle_beta  112.561698
_cell_angle_gamma   85.899127

loop_
_atom_site_label
_atom_site_fract_x
_atom_site_fract_y
_atom_site_fract_z
C1  1.239692687878E-01  4.108009570522E-02  4.084106994127E-01
C2 -1.239692687878E-01 -4.108009570522E-02 -4.084106994127E-01
C3 -2.372107409347E-02 -2.680957314300E-01  2.811895161716E-01
C4  2.372107409347E-02  2.680957314300E-01 -2.811895161716E-01
C5  3.592232791014E-02 -1.769741290526E-01  3.734285719251E-01
C6 -3.592232791014E-02  1.769741290526E-01 -3.734285719251E-01
C7  1.496193085837E-01  1.610820942884E-01  3.500193764901E-01
C8 -1.496193085837E-01 -1.610820942884E-01 -3.500193764901E-01
C9  9.132714716154E-02  7.087085631783E-02  2.524808387882E-01
C10 -9.132714716154E-02 -7.087085631783E-02 -2.524808387882E-01
C11  1.190390689291E-01  1.876477570651E-01  1.919648874350E-01
C12 -1.190390689291E-01 -1.876477570651E-01 -1.919648874350E-01
C13  6.060341651195E-02  9.710754320819E-02  9.598229497663E-02
C14 -6.060341651195E-02 -9.710754320819E-02 -9.598229497663E-02
C15  8.805359614110E-02  2.136825033771E-01  3.433413816477E-02
C16 -8.805359614110E-02 -2.136825033771E-01 -3.433413816477E-02
C17 -2.952600167099E-02 -1.229177514001E-01  6.065354954321E-02
C18  2.952600167099E-02  1.229177514001E-01 -6.065354954321E-02
C19 -5.631294964596E-02 -2.400286862120E-01  1.232824329147E-01
C20  5.631294964596E-02  2.400286862120E-01 -1.232824329147E-01
C21  2.135313961095E-03 -1.493859411585E-01  2.172360974612E-01
C22 -2.135313961095E-03  1.493859411585E-01 -2.172360974612E-01
H23  1.702819206366E-01  1.117733902333E-01  4.831515744529E-01
H24 -1.702819206366E-01 -1.117733902333E-01 -4.831515744529E-01
H25 -9.244171546510E-02 -4.348024216540E-01  2.541915015144E-01
H26  9.244171546510E-02  4.348024216540E-01 -2.541915015144E-01
H27  1.536161803757E-02 -2.708387124603E-01  4.215514267853E-01
H28 -1.536161803757E-02  2.708387124603E-01 -4.215514267853E-01
H29  2.147696478700E-01  3.302454665417E-01  3.761260060467E-01
H30 -2.147696478700E-01 -3.302454665417E-01 -3.761260060467E-01
H31  1.882284060639E-01  3.544328167196E-01  2.188294528688E-01
H32 -1.882284060639E-01 -3.544328167196E-01 -2.188294528688E-01
H33  1.568890980375E-01  3.806495847662E-01  6.114891436541E-02
H34 -1.568890980375E-01 -3.806495847662E-01 -6.114891436541E-02
H35 -1.246372355347E-01 -4.072951935761E-01  9.642622020782E-02
H36  1.246372355347E-01  4.072951935761E-01 -9.642622020782E-02
C37 -4.520664957919E-01 -4.289292481248E-01  3.986903255685E-01
C38  4.520664957919E-01  4.289292481248E-01 -3.986903255685E-01
C39  4.913995670435E-01 -3.145877013084E-01  3.269257604714E-01
C40 -4.913995670435E-01  3.145877013084E-01 -3.269257604714E-01
C41 -4.899788364856E-01 -4.134747826108E-01  2.409752827003E-01
C42  4.899788364856E-01  4.134747826108E-01 -2.409752827003E-01
C43  4.546905482071E-01 -3.000340250450E-01  1.671838110786E-01
C44 -4.546905482071E-01  3.000340250450E-01 -1.671838110786E-01
C45  4.759135085859E-01 -3.970290443800E-01  8.316260789666E-02
C46 -4.759135085859E-01  3.970290443800E-01 -8.316260789666E-02
C47  4.220550697313E-01 -2.823682802948E-01  8.657255829255E-03
C48 -4.220550697313E-01  2.823682802948E-01 -8.657255829255E-03
C49 -4.443747844784E-01  3.789186006893E-01  7.421331078390E-02
C50  4.443747844784E-01 -3.789186006893E-01 -7.421331078390E-02
C51 -3.895719787460E-01  2.647447928454E-01  1.499342185088E-01
C52  3.895719787460E-01 -2.647447928454E-01 -1.499342185088E-01
C53 -4.102894849310E-01  3.626389970021E-01  2.321124679831E-01
C54  4.102894849310E-01 -3.626389970021E-01 -2.321124679831E-01
C55 -3.522904059308E-01  2.495275595119E-01  3.098302786606E-01
C56  3.522904059308E-01 -2.495275595119E-01 -3.098302786606E-01
C57 -3.727499639689E-01  3.500866915985E-01  3.900828890964E-01
C58  3.727499639689E-01 -3.500866915985E-01 -3.900828890964E-01
H59 -4.665326184884E-01 -3.502773861180E-01  4.643270663521E-01
H60  4.665326184884E-01  3.502773861180E-01 -4.643270663521E-01
H61  4.311012987882E-01 -1.444386598914E-01  3.339259552948E-01
H62 -4.311012987882E-01  1.444386598914E-01 -3.339259552948E-01
H63  3.937502328714E-01 -1.300146901535E-01  1.739913137829E-01
H64 -3.937502328714E-01  1.300146901535E-01 -1.739913137829E-01
H65  3.608947973811E-01 -1.124754565713E-01  1.547889375081E-02
H66 -3.608947973811E-01  1.124754565713E-01 -1.547889375081E-02
H67 -3.282112141719E-01  9.491541060979E-02  1.431983579137E-01
H68  3.282112141719E-01 -9.491541060979E-02 -1.431983579137E-01
H69 -2.899968902537E-01  8.042362609593E-02  3.033912571474E-01
H70  2.899968902537E-01 -8.042362609593E-02 -3.033912571474E-01
H71 -3.274602790669E-01  2.621351986153E-01  4.493704722361E-01
H72  3.274602790669E-01 -2.621351986153E-01 -4.493704722361E-01


#===END

data_OPT_STEP_80

_symmetry_space_group_name_H-M 'P 1'
_cell_length_a      7.96648466
_cell_length_b      6.08029122
_cell_length_c     16.06741626
_cell_angle_alpha  101.600738
_cell_angle_beta  112.542741
_cell_angle_gamma   85.894981

loop_
_atom_site_label
_atom_site_fract_x
_atom_site_fract_y
_atom_site_fract_z
C1  1.240457791367E-01  4.121001680077E-02  4.084162040114E-01
C2 -1.240457791367E-01 -4.121001680077E-02 -4.084162040114E-01
C3 -2.363280962317E-02 -2.679779723826E-01  2.812488443776E-01
C4  2.363280962317E-02  2.679779723826E-01 -2.812488443776E-01
C5  3.601767656734E-02 -1.768326604741E-01  3.734718313671E-01
C6 -3.601767656734E-02  1.768326604741E-01 -3.734718313671E-01
C7  1.496699821216E-01  1.611812906912E-01  3.500046100691E-01
C8 -1.496699821216E-01 -1.611812906912E-01 -3.500046100691E-01
C9  9.136965423788E-02  7.095001356487E-02  2.524794563640E-01
C10 -9.136965423788E-02 -7.095001356487E-02 -2.524794563640E-01
C11  1.190538888459E-01  1.876984107959E-01  1.919407971933E-01
C12 -1.190538888459E-01 -1.876984107959E-01 -1.919407971933E-01
C13  6.060862200827E-02  9.713637392190E-02  9.596980702274E-02
C14 -6.060862200827E-02 -9.713637392190E-02 -9.596980702274E-02
C15  8.803373479392E-02  2.136795530133E-01  3.429442727397E-02
C16 -8.803373479392E-02 -2.136795530133E-01 -3.429442727397E-02
C17 -2.950081924564E-02 -1.228875019946E-01  6.067973603310E-02
C18  2.950081924564E-02  1.228875019946E-01 -6.067973603310E-02
C19 -5.625381523530E-02 -2.399701175659E-01  1.233335188844E-01
C20  5.625381523530E-02  2.399701175659E-01 -1.233335188844E-01
C21  2.200197711335E-03 -1.493014908481E-01  2.172731410351E-01
C22 -2.200197711335E-03  1.493014908481E-01 -2.172731410351E-01
H23  1.703688922916E-01  1.119188111706E-01  4.831451252302E-01
H24 -1.703688922916E-01 -1.119188111706E-01 -4.831451252302E-01
H25 -9.234013447672E-02 -4.346794033437E-01  2.542790604293E-01
H26  9.234013447672E-02  4.346794033437E-01 -2.542790604293E-01
H27  1.546393947879E-02 -2.706600999270E-01  4.216109525747E-01
H28 -1.546393947879E-02  2.706600999270E-01 -4.216109525747E-01
H29  2.148067453224E-01  3.303330369212E-01  3.760873214022E-01
H30 -2.148067453224E-01 -3.303330369212E-01 -3.760873214022E-01
H31  1.882263111186E-01  3.544804083334E-01  2.187751996591E-01
H32 -1.882263111186E-01 -3.544804083334E-01 -2.187751996591E-01
H33  1.568581382086E-01  3.806435237838E-01  6.107749854905E-02
H34 -1.568581382086E-01 -3.806435237838E-01 -6.107749854905E-02
H35 -1.245538883558E-01 -4.072394484781E-01  9.650622776314E-02
H36  1.245538883558E-01  4.072394484781E-01 -9.650622776314E-02
C37 -4.520652618527E-01 -4.289563561870E-01  3.986907966013E-01
C38  4.520652618527E-01  4.289563561870E-01 -3.986907966013E-01
C39  4.913922353811E-01 -3.146024432957E-01  3.269349825118E-01
C40 -4.913922353811E-01  3.146024432957E-01 -3.269349825118E-01
C41 -4.899836390417E-01 -4.134800308279E-01  2.409800865162E-01
C42  4.899836390417E-01  4.134800308279E-01 -2.409800865162E-01
C43  4.546823406951E-01 -3.000327413752E-01  1.671936893139E-01
C44 -4.546823406951E-01  3.000327413752E-01 -1.671936893139E-01
C45  4.759071939595E-01 -3.970291176329E-01  8.316715676733E-02
C46 -4.759071939595E-01  3.970291176329E-01 -8.316715676733E-02
C47  4.220441227926E-01 -2.823656719953E-01  8.665508034055E-03
C48 -4.220441227926E-01  2.823656719953E-01 -8.665508034055E-03
C49 -4.443719752929E-01  3.789155834688E-01  7.420900527436E-02
C50  4.443719752929E-01 -3.789155834688E-01 -7.420900527436E-02
C51 -3.895606738586E-01  2.647405698522E-01  1.499253714932E-01
C52  3.895606738586E-01 -2.647405698522E-01 -1.499253714932E-01
C53 -4.102935800870E-01  3.626271475707E-01  2.321048670138E-01
C54  4.102935800870E-01 -3.626271475707E-01 -2.321048670138E-01
C55 -3.522932176134E-01  2.495029389047E-01  3.098127512725E-01
C56  3.522932176134E-01 -2.495029389047E-01 -3.098127512725E-01
C57 -3.727515224803E-01  3.500555091813E-01  3.900685817441E-01
C58  3.727515224803E-01 -3.500555091813E-01 -3.900685817441E-01
H59 -4.665210915740E-01 -3.503228216255E-01  4.643321137428E-01
H60  4.665210915740E-01  3.503228216255E-01 -4.643321137428E-01
H61  4.310798789973E-01 -1.444541090444E-01  3.339436421186E-01
H62 -4.310798789973E-01  1.444541090444E-01 -3.339436421186E-01
H63  3.937307222453E-01 -1.300095853600E-01  1.740061185351E-01
H64 -3.937307222453E-01  1.300095853600E-01 -1.740061185351E-01
H65  3.608673424006E-01 -1.124696040168E-01  1.549161854216E-02
H66 -3.608673424006E-01  1.124696040168E-01 -1.549161854216E-02
H67 -3.281923588135E-01  9.490552379539E-02  1.431812273318E-01
H68  3.281923588135E-01 -9.490552379539E-02 -1.431812273318E-01
H69 -2.900018180381E-01  8.039143992232E-02  3.033616692636E-01
H70  2.900018180381E-01 -8.039143992232E-02 -3.033616692636E-01
H71 -3.274674817368E-01  2.620885386351E-01  4.493457090638E-01
H72  3.274674817368E-01 -2.620885386351E-01 -4.493457090638E-01


#===END

data_OPT_STEP_81

_symmetry_space_group_name_H-M 'P 1'
_cell_length_a      7.96642298
_cell_length_b      6.08028895
_cell_length_c     16.06779390
_cell_angle_alpha  101.600635
_cell_angle_beta  112.541487
_cell_angle_gamma   85.892096

loop_
_atom_site_label
_atom_site_fract_x
_atom_site_fract_y
_atom_site_fract_z
C1  1.240744300205E-01  4.123801853841E-02  4.084207826962E-01
C2 -1.240744300205E-01 -4.123801853841E-02 -4.084207826962E-01
C3 -2.363711497915E-02 -2.679659137318E-01  2.812600695912E-01
C4  2.363711497915E-02  2.679659137318E-01 -2.812600695912E-01
C5  3.603582680321E-02 -1.768233790673E-01  3.734705233440E-01
C6 -3.603582680321E-02  1.768233790673E-01 -3.734705233440E-01
C7  1.496897666435E-01  1.611871232686E-01  3.500189494629E-01
C8 -1.496897666435E-01 -1.611871232686E-01 -3.500189494629E-01
C9  9.138964063276E-02  7.094333660004E-02  2.524924287144E-01
C10 -9.138964063276E-02 -7.094333660004E-02 -2.524924287144E-01
C11  1.190786320278E-01  1.877215642159E-01  1.919609557281E-01
C12 -1.190786320278E-01 -1.877215642159E-01 -1.919609557281E-01
C13  6.061142445634E-02  9.716094785486E-02  9.598010216027E-02
C14 -6.061142445634E-02 -9.716094785486E-02 -9.598010216027E-02
C15  8.804678361631E-02  2.137199240946E-01  3.428509519184E-02
C16 -8.804678361631E-02 -2.137199240946E-01 -3.428509519184E-02
C17 -2.954605935756E-02 -1.229039858784E-01  6.068362570594E-02
C18  2.954605935756E-02  1.229039858784E-01 -6.068362570594E-02
C19 -5.626248729246E-02 -2.399894207017E-01  1.233480948339E-01
C20  5.626248729246E-02  2.399894207017E-01 -1.233480948339E-01
C21  2.199219324259E-03 -1.493070136119E-01  2.172849521523E-01
C22 -2.199219324259E-03  1.493070136119E-01 -2.172849521523E-01
H23  1.703894318951E-01  1.119478171948E-01  4.831363362099E-01
H24 -1.703894318951E-01 -1.119478171948E-01 -4.831363362099E-01
H25 -9.230337451528E-02 -4.347141289019E-01  2.542908288990E-01
H26  9.230337451528E-02  4.347141289019E-01 -2.542908288990E-01
H27  1.543629432827E-02 -2.706295628104E-01  4.216024252876E-01
H28 -1.543629432827E-02  2.706295628104E-01 -4.216024252876E-01
H29  2.147496350130E-01  3.303699041315E-01  3.760871390044E-01
H30 -2.147496350130E-01 -3.303699041315E-01 -3.760871390044E-01
H31  1.882814584548E-01  3.545187590993E-01  2.187994358909E-01
H32 -1.882814584548E-01 -3.545187590993E-01 -2.187994358909E-01
H33  1.569283600530E-01  3.807177778671E-01  6.107713501873E-02
H34 -1.569283600530E-01 -3.807177778671E-01 -6.107713501873E-02
H35 -1.245285629791E-01 -4.073076116930E-01  9.650744630689E-02
H36  1.245285629791E-01  4.073076116930E-01 -9.650744630689E-02
C37 -4.520580822260E-01 -4.289771196183E-01  3.986985608775E-01
C38  4.520580822260E-01  4.289771196183E-01 -3.986985608775E-01
C39  4.914031374999E-01 -3.146098335244E-01  3.269448336324E-01
C40 -4.914031374999E-01  3.146098335244E-01 -3.269448336324E-01
C41 -4.899778484777E-01 -4.134812998464E-01  2.409892945327E-01
C42  4.899778484777E-01  4.134812998464E-01 -2.409892945327E-01
C43  4.547116098120E-01 -3.000232407734E-01  1.672080381322E-01
C44 -4.547116098120E-01  3.000232407734E-01 -1.672080381322E-01
C45  4.758859986083E-01 -3.970635432680E-01  8.316065421153E-02
C46 -4.758859986083E-01  3.970635432680E-01 -8.316065421153E-02
C47  4.220801436266E-01 -2.823687340067E-01  8.674049791872E-03
C48 -4.220801436266E-01  2.823687340067E-01 -8.674049791872E-03
C49 -4.444167551630E-01  3.788997949036E-01  7.420930426202E-02
C50  4.444167551630E-01 -3.788997949036E-01 -7.420930426202E-02
C51 -3.895774457796E-01  2.647727787596E-01  1.499297754300E-01
C52  3.895774457796E-01 -2.647727787596E-01 -1.499297754300E-01
C53 -4.103539009203E-01  3.626182140776E-01  2.321031681624E-01
C54  4.103539009203E-01 -3.626182140776E-01 -2.321031681624E-01
C55 -3.522969259161E-01  2.495666848606E-01  3.098181603608E-01
C56  3.522969259161E-01 -2.495666848606E-01 -3.098181603608E-01
C57 -3.727537740607E-01  3.500995663612E-01  3.900672566797E-01
C58  3.727537740607E-01 -3.500995663612E-01 -3.900672566797E-01
H59 -4.665143104212E-01 -3.503793781315E-01  4.643280513672E-01
H60  4.665143104212E-01  3.503793781315E-01 -4.643280513672E-01
H61  4.310450220665E-01 -1.444986620000E-01  3.339430745337E-01
H62 -4.310450220665E-01  1.444986620000E-01 -3.339430745337E-01
H63  3.937223653884E-01 -1.300206597041E-01  1.740142231152E-01
H64 -3.937223653884E-01  1.300206597041E-01 -1.740142231152E-01
H65  3.608307649809E-01 -1.124949606884E-01  1.550127828422E-02
H66 -3.608307649809E-01  1.124949606884E-01 -1.550127828422E-02
H67 -3.281870451858E-01  9.495110119549E-02  1.431749546720E-01
H68  3.281870451858E-01 -9.495110119549E-02 -1.431749546720E-01
H69 -2.900215857528E-01  8.047347810314E-02  3.033592751893E-01
H70  2.900215857528E-01 -8.047347810314E-02 -3.033592751893E-01
H71 -3.274926594183E-01  2.621144064483E-01  4.493225440180E-01
H72  3.274926594183E-01 -2.621144064483E-01 -4.493225440180E-01


#===END

data_OPT_STEP_82

_symmetry_space_group_name_H-M 'P 1'
_cell_length_a      7.96642298
_cell_length_b      6.08028895
_cell_length_c     16.06779390
_cell_angle_alpha  101.600635
_cell_angle_beta  112.541487
_cell_angle_gamma   85.892096

loop_
_atom_site_label
_atom_site_fract_x
_atom_site_fract_y
_atom_site_fract_z
C1  1.240744300205E-01  4.123801853841E-02  4.084207826962E-01
C2 -1.240744300205E-01 -4.123801853841E-02 -4.084207826962E-01
C3 -2.363711497915E-02 -2.679659137318E-01  2.812600695912E-01
C4  2.363711497915E-02  2.679659137318E-01 -2.812600695912E-01
C5  3.603582680321E-02 -1.768233790673E-01  3.734705233440E-01
C6 -3.603582680321E-02  1.768233790673E-01 -3.734705233440E-01
C7  1.496897666435E-01  1.611871232686E-01  3.500189494629E-01
C8 -1.496897666435E-01 -1.611871232686E-01 -3.500189494629E-01
C9  9.138964063276E-02  7.094333660004E-02  2.524924287144E-01
C10 -9.138964063276E-02 -7.094333660004E-02 -2.524924287144E-01
C11  1.190786320278E-01  1.877215642159E-01  1.919609557281E-01
C12 -1.190786320278E-01 -1.877215642159E-01 -1.919609557281E-01
C13  6.061142445634E-02  9.716094785486E-02  9.598010216027E-02
C14 -6.061142445634E-02 -9.716094785486E-02 -9.598010216027E-02
C15  8.804678361631E-02  2.137199240946E-01  3.428509519184E-02
C16 -8.804678361631E-02 -2.137199240946E-01 -3.428509519184E-02
C17 -2.954605935756E-02 -1.229039858784E-01  6.068362570594E-02
C18  2.954605935756E-02  1.229039858784E-01 -6.068362570594E-02
C19 -5.626248729246E-02 -2.399894207017E-01  1.233480948339E-01
C20  5.626248729246E-02  2.399894207017E-01 -1.233480948339E-01
C21  2.199219324259E-03 -1.493070136119E-01  2.172849521523E-01
C22 -2.199219324259E-03  1.493070136119E-01 -2.172849521523E-01
H23  1.703894318951E-01  1.119478171948E-01  4.831363362099E-01
H24 -1.703894318951E-01 -1.119478171948E-01 -4.831363362099E-01
H25 -9.230337451528E-02 -4.347141289019E-01  2.542908288990E-01
H26  9.230337451528E-02  4.347141289019E-01 -2.542908288990E-01
H27  1.543629432827E-02 -2.706295628104E-01  4.216024252876E-01
H28 -1.543629432827E-02  2.706295628104E-01 -4.216024252876E-01
H29  2.147496350130E-01  3.303699041315E-01  3.760871390044E-01
H30 -2.147496350130E-01 -3.303699041315E-01 -3.760871390044E-01
H31  1.882814584548E-01  3.545187590993E-01  2.187994358909E-01
H32 -1.882814584548E-01 -3.545187590993E-01 -2.187994358909E-01
H33  1.569283600530E-01  3.807177778671E-01  6.107713501873E-02
H34 -1.569283600530E-01 -3.807177778671E-01 -6.107713501873E-02
H35 -1.245285629791E-01 -4.073076116930E-01  9.650744630689E-02
H36  1.245285629791E-01  4.073076116930E-01 -9.650744630689E-02
C37 -4.520580822260E-01 -4.289771196183E-01  3.986985608775E-01
C38  4.520580822260E-01  4.289771196183E-01 -3.986985608775E-01
C39  4.914031374999E-01 -3.146098335244E-01  3.269448336324E-01
C40 -4.914031374999E-01  3.146098335244E-01 -3.269448336324E-01
C41 -4.899778484777E-01 -4.134812998464E-01  2.409892945327E-01
C42  4.899778484777E-01  4.134812998464E-01 -2.409892945327E-01
C43  4.547116098120E-01 -3.000232407734E-01  1.672080381322E-01
C44 -4.547116098120E-01  3.000232407734E-01 -1.672080381322E-01
C45  4.758859986083E-01 -3.970635432680E-01  8.316065421153E-02
C46 -4.758859986083E-01  3.970635432680E-01 -8.316065421153E-02
C47  4.220801436266E-01 -2.823687340067E-01  8.674049791872E-03
C48 -4.220801436266E-01  2.823687340067E-01 -8.674049791872E-03
C49 -4.444167551630E-01  3.788997949036E-01  7.420930426202E-02
C50  4.444167551630E-01 -3.788997949036E-01 -7.420930426202E-02
C51 -3.895774457796E-01  2.647727787596E-01  1.499297754300E-01
C52  3.895774457796E-01 -2.647727787596E-01 -1.499297754300E-01
C53 -4.103539009203E-01  3.626182140776E-01  2.321031681624E-01
C54  4.103539009203E-01 -3.626182140776E-01 -2.321031681624E-01
C55 -3.522969259161E-01  2.495666848606E-01  3.098181603608E-01
C56  3.522969259161E-01 -2.495666848606E-01 -3.098181603608E-01
C57 -3.727537740607E-01  3.500995663612E-01  3.900672566797E-01
C58  3.727537740607E-01 -3.500995663612E-01 -3.900672566797E-01
H59 -4.665143104212E-01 -3.503793781315E-01  4.643280513672E-01
H60  4.665143104212E-01  3.503793781315E-01 -4.643280513672E-01
H61  4.310450220665E-01 -1.444986620000E-01  3.339430745337E-01
H62 -4.310450220665E-01  1.444986620000E-01 -3.339430745337E-01
H63  3.937223653884E-01 -1.300206597041E-01  1.740142231152E-01
H64 -3.937223653884E-01  1.300206597041E-01 -1.740142231152E-01
H65  3.608307649809E-01 -1.124949606884E-01  1.550127828422E-02
H66 -3.608307649809E-01  1.124949606884E-01 -1.550127828422E-02
H67 -3.281870451858E-01  9.495110119549E-02  1.431749546720E-01
H68  3.281870451858E-01 -9.495110119549E-02 -1.431749546720E-01
H69 -2.900215857528E-01  8.047347810314E-02  3.033592751893E-01
H70  2.900215857528E-01 -8.047347810314E-02 -3.033592751893E-01
H71 -3.274926594183E-01  2.621144064483E-01  4.493225440180E-01
H72  3.274926594183E-01 -2.621144064483E-01 -4.493225440180E-01


#===END
