###############################################################################
#
#                    CRYSTAL17 CIF FILE
#
###############################################################################

data_OPT_STEP_1

_symmetry_space_group_name_H-M 'P 1'
_cell_length_a      7.90000000
_cell_length_b      6.03000000
_cell_length_c     13.53000000
_cell_angle_alpha  100.300000
_cell_angle_beta  113.200000
_cell_angle_gamma   86.300000

loop_
_atom_site_label
_atom_site_fract_x
_atom_site_fract_y
_atom_site_fract_z
C1  1.194000000000E-01  3.310000000000E-02  3.890000000000E-01
C2 -1.194000000000E-01 -3.310000000000E-02 -3.890000000000E-01
C3  1.494000000000E-01  1.564000000000E-01  3.219000000000E-01
C4 -1.494000000000E-01 -1.564000000000E-01 -3.219000000000E-01
C5  8.110000000000E-02  7.240000000000E-02  2.040000000000E-01
C6 -8.110000000000E-02 -7.240000000000E-02 -2.040000000000E-01
C7  1.094000000000E-01  1.899000000000E-01  1.360000000000E-01
C8 -1.094000000000E-01 -1.899000000000E-01 -1.360000000000E-01
C9  4.670000000000E-02  1.089000000000E-01  2.110000000000E-02
C10 -4.670000000000E-02 -1.089000000000E-01 -2.110000000000E-02
C11  6.910000000000E-02  2.228000000000E-01 -5.160000000000E-02
C12 -6.910000000000E-02 -2.228000000000E-01  5.160000000000E-02
C13 -3.500000000000E-03 -1.405000000000E-01  1.637000000000E-01
C14  3.500000000000E-03  1.405000000000E-01 -1.637000000000E-01
C15 -3.780000000000E-02 -2.646000000000E-01  2.355000000000E-01
C16  3.780000000000E-02  2.646000000000E-01 -2.355000000000E-01
C17  2.670000000000E-02 -1.832000000000E-01  3.483000000000E-01
C18 -2.670000000000E-02  1.832000000000E-01 -3.483000000000E-01
H19  1.680000000000E-01  1.000000000000E-01  4.700000000000E-01
H20 -1.680000000000E-01 -1.000000000000E-01 -4.700000000000E-01
H21  2.120000000000E-01  3.170000000000E-01  3.490000000000E-01
H22 -2.120000000000E-01 -3.170000000000E-01 -3.490000000000E-01
H23  1.760000000000E-01  3.540000000000E-01  1.650000000000E-01
H24 -1.760000000000E-01 -3.540000000000E-01 -1.650000000000E-01
H25  1.340000000000E-01  3.880000000000E-01 -2.200000000000E-02
H26 -1.340000000000E-01 -3.880000000000E-01  2.200000000000E-02
H27 -9.500000000000E-02 -4.250000000000E-01  2.020000000000E-01
H28  9.500000000000E-02  4.250000000000E-01 -2.020000000000E-01
H29  1.100000000000E-02 -2.790000000000E-01  4.000000000000E-01
H30 -1.100000000000E-02  2.790000000000E-01 -4.000000000000E-01
C31 -4.572000000000E-01 -4.320000000000E-01  3.787000000000E-01
C32  4.572000000000E-01  4.320000000000E-01 -3.787000000000E-01
C33  4.799000000000E-01 -3.139000000000E-01  2.930000000000E-01
C34 -4.799000000000E-01  3.139000000000E-01 -2.930000000000E-01
C35  4.997000000000E-01 -4.136000000000E-01  1.947000000000E-01
C36 -4.997000000000E-01  4.136000000000E-01 -1.947000000000E-01
C37  4.425000000000E-01 -2.993000000000E-01  1.048000000000E-01
C38 -4.425000000000E-01  2.993000000000E-01 -1.048000000000E-01
C39  4.638000000000E-01 -3.860000000000E-01  5.200000000000E-03
C40 -4.638000000000E-01  3.860000000000E-01 -5.200000000000E-03
C41  4.052000000000E-01 -2.758000000000E-01 -8.320000000000E-02
C42 -4.052000000000E-01  2.758000000000E-01  8.320000000000E-02
C43 -4.242000000000E-01  3.649000000000E-01  1.811000000000E-01
C44  4.242000000000E-01 -3.649000000000E-01 -1.811000000000E-01
C45 -3.694000000000E-01  2.568000000000E-01  2.685000000000E-01
C46  3.694000000000E-01 -2.568000000000E-01 -2.685000000000E-01
C47 -3.852000000000E-01  3.374000000000E-01  3.645000000000E-01
C48  3.852000000000E-01 -3.374000000000E-01 -3.645000000000E-01
H49 -4.690000000000E-01 -3.500000000000E-01  4.540000000000E-01
H50  4.690000000000E-01  3.500000000000E-01 -4.540000000000E-01
H51  4.250000000000E-01 -1.480000000000E-01  3.050000000000E-01
H52 -4.250000000000E-01  1.480000000000E-01 -3.050000000000E-01
H53  3.860000000000E-01 -1.300000000000E-01  1.140000000000E-01
H54 -3.860000000000E-01  1.300000000000E-01 -1.140000000000E-01
H55  3.510000000000E-01 -1.130000000000E-01 -7.200000000000E-02
H56 -3.510000000000E-01  1.130000000000E-01  7.200000000000E-02
H57 -3.150000000000E-01  8.900000000000E-02  2.530000000000E-01
H58  3.150000000000E-01 -8.900000000000E-02 -2.530000000000E-01
H59 -3.450000000000E-01  2.460000000000E-01  4.250000000000E-01
H60  3.450000000000E-01 -2.460000000000E-01 -4.250000000000E-01


#===END

data_OPT_STEP_2

_symmetry_space_group_name_H-M 'P 1'
_cell_length_a      7.90000000
_cell_length_b      6.03000000
_cell_length_c     13.53000000
_cell_angle_alpha  100.300000
_cell_angle_beta  113.200000
_cell_angle_gamma   86.300000

loop_
_atom_site_label
_atom_site_fract_x
_atom_site_fract_y
_atom_site_fract_z
C1  1.194000000000E-01  3.310000000000E-02  3.890000000000E-01
C2 -1.194000000000E-01 -3.310000000000E-02 -3.890000000000E-01
C3  1.494000000000E-01  1.564000000000E-01  3.219000000000E-01
C4 -1.494000000000E-01 -1.564000000000E-01 -3.219000000000E-01
C5  8.110000000000E-02  7.240000000000E-02  2.040000000000E-01
C6 -8.110000000000E-02 -7.240000000000E-02 -2.040000000000E-01
C7  1.094000000000E-01  1.899000000000E-01  1.360000000000E-01
C8 -1.094000000000E-01 -1.899000000000E-01 -1.360000000000E-01
C9  4.670000000000E-02  1.089000000000E-01  2.110000000000E-02
C10 -4.670000000000E-02 -1.089000000000E-01 -2.110000000000E-02
C11  6.910000000000E-02  2.228000000000E-01 -5.160000000000E-02
C12 -6.910000000000E-02 -2.228000000000E-01  5.160000000000E-02
C13 -3.500000000000E-03 -1.405000000000E-01  1.637000000000E-01
C14  3.500000000000E-03  1.405000000000E-01 -1.637000000000E-01
C15 -3.780000000000E-02 -2.646000000000E-01  2.355000000000E-01
C16  3.780000000000E-02  2.646000000000E-01 -2.355000000000E-01
C17  2.670000000000E-02 -1.832000000000E-01  3.483000000000E-01
C18 -2.670000000000E-02  1.832000000000E-01 -3.483000000000E-01
H19  1.680000000000E-01  1.000000000000E-01  4.700000000000E-01
H20 -1.680000000000E-01 -1.000000000000E-01 -4.700000000000E-01
H21  2.120000000000E-01  3.170000000000E-01  3.490000000000E-01
H22 -2.120000000000E-01 -3.170000000000E-01 -3.490000000000E-01
H23  1.760000000000E-01  3.540000000000E-01  1.650000000000E-01
H24 -1.760000000000E-01 -3.540000000000E-01 -1.650000000000E-01
H25  1.340000000000E-01  3.880000000000E-01 -2.200000000000E-02
H26 -1.340000000000E-01 -3.880000000000E-01  2.200000000000E-02
H27 -9.500000000000E-02 -4.250000000000E-01  2.020000000000E-01
H28  9.500000000000E-02  4.250000000000E-01 -2.020000000000E-01
H29  1.100000000000E-02 -2.790000000000E-01  4.000000000000E-01
H30 -1.100000000000E-02  2.790000000000E-01 -4.000000000000E-01
C31 -4.572000000000E-01 -4.320000000000E-01  3.787000000000E-01
C32  4.572000000000E-01  4.320000000000E-01 -3.787000000000E-01
C33  4.799000000000E-01 -3.139000000000E-01  2.930000000000E-01
C34 -4.799000000000E-01  3.139000000000E-01 -2.930000000000E-01
C35  4.997000000000E-01 -4.136000000000E-01  1.947000000000E-01
C36 -4.997000000000E-01  4.136000000000E-01 -1.947000000000E-01
C37  4.425000000000E-01 -2.993000000000E-01  1.048000000000E-01
C38 -4.425000000000E-01  2.993000000000E-01 -1.048000000000E-01
C39  4.638000000000E-01 -3.860000000000E-01  5.200000000000E-03
C40 -4.638000000000E-01  3.860000000000E-01 -5.200000000000E-03
C41  4.052000000000E-01 -2.758000000000E-01 -8.320000000000E-02
C42 -4.052000000000E-01  2.758000000000E-01  8.320000000000E-02
C43 -4.242000000000E-01  3.649000000000E-01  1.811000000000E-01
C44  4.242000000000E-01 -3.649000000000E-01 -1.811000000000E-01
C45 -3.694000000000E-01  2.568000000000E-01  2.685000000000E-01
C46  3.694000000000E-01 -2.568000000000E-01 -2.685000000000E-01
C47 -3.852000000000E-01  3.374000000000E-01  3.645000000000E-01
C48  3.852000000000E-01 -3.374000000000E-01 -3.645000000000E-01
H49 -4.690000000000E-01 -3.500000000000E-01  4.540000000000E-01
H50  4.690000000000E-01  3.500000000000E-01 -4.540000000000E-01
H51  4.250000000000E-01 -1.480000000000E-01  3.050000000000E-01
H52 -4.250000000000E-01  1.480000000000E-01 -3.050000000000E-01
H53  3.860000000000E-01 -1.300000000000E-01  1.140000000000E-01
H54 -3.860000000000E-01  1.300000000000E-01 -1.140000000000E-01
H55  3.510000000000E-01 -1.130000000000E-01 -7.200000000000E-02
H56 -3.510000000000E-01  1.130000000000E-01  7.200000000000E-02
H57 -3.150000000000E-01  8.900000000000E-02  2.530000000000E-01
H58  3.150000000000E-01 -8.900000000000E-02 -2.530000000000E-01
H59 -3.450000000000E-01  2.460000000000E-01  4.250000000000E-01
H60  3.450000000000E-01 -2.460000000000E-01 -4.250000000000E-01


#===END

data_OPT_STEP_3

_symmetry_space_group_name_H-M 'P 1'
_cell_length_a      7.88560192
_cell_length_b      6.06327177
_cell_length_c     13.56396014
_cell_angle_alpha  100.312647
_cell_angle_beta  113.238114
_cell_angle_gamma   86.222368

loop_
_atom_site_label
_atom_site_fract_x
_atom_site_fract_y
_atom_site_fract_z
C1  1.187082847379E-01  3.542551903066E-02  3.892659190604E-01
C2 -1.187082847379E-01 -3.542551903066E-02 -3.892659190604E-01
C3  1.455031144049E-01  1.597252779977E-01  3.215371300031E-01
C4 -1.455031144049E-01 -1.597252779977E-01 -3.215371300031E-01
C5  8.191150932658E-02  7.313700038507E-02  2.044649960302E-01
C6 -8.191150932658E-02 -7.313700038507E-02 -2.044649960302E-01
C7  1.086234196750E-01  1.914331244373E-01  1.352906387197E-01
C8 -1.086234196750E-01 -1.914331244373E-01 -1.352906387197E-01
C9  4.597522025719E-02  1.093205658771E-01  2.079262939392E-02
C10 -4.597522025719E-02 -1.093205658771E-01 -2.079262939392E-02
C11  6.977127550070E-02  2.235539833735E-01 -5.223002385658E-02
C12 -6.977127550070E-02 -2.235539833735E-01  5.223002385658E-02
C13 -7.649219598565E-03 -1.382574055785E-01  1.639685342892E-01
C14  7.649219598565E-03  1.382574055785E-01 -1.639685342892E-01
C15 -3.356050913226E-02 -2.653683151775E-01  2.373776393287E-01
C16  3.356050913226E-02  2.653683151775E-01 -2.373776393287E-01
C17  2.839054207595E-02 -1.813843270240E-01  3.489147658494E-01
C18 -2.839054207595E-02  1.813843270240E-01 -3.489147658494E-01
H19  1.664872216941E-01  1.032393911224E-01  4.716655550553E-01
H20 -1.664872216941E-01 -1.032393911224E-01 -4.716655550553E-01
H21  2.099604951860E-01  3.208042761880E-01  3.492239911338E-01
H22 -2.099604951860E-01 -3.208042761880E-01 -3.492239911338E-01
H23  1.761148731848E-01  3.552355181880E-01  1.643782438002E-01
H24 -1.761148731848E-01 -3.552355181880E-01 -1.643782438002E-01
H25  1.383353635474E-01  3.870204187559E-01 -2.237900523833E-02
H26 -1.383353635474E-01 -3.870204187559E-01  2.237900523833E-02
H27 -9.251271145850E-02 -4.269295852112E-01  2.042777132600E-01
H28  9.251271145850E-02  4.269295852112E-01 -2.042777132600E-01
H29  8.593747571342E-03 -2.748609240643E-01  4.015074157627E-01
H30 -8.593747571342E-03  2.748609240643E-01 -4.015074157627E-01
C31 -4.568478368875E-01 -4.322569948156E-01  3.787929241205E-01
C32  4.568478368875E-01  4.322569948156E-01 -3.787929241205E-01
C33  4.838654283272E-01 -3.132646253908E-01  2.935331961375E-01
C34 -4.838654283272E-01  3.132646253908E-01 -2.935331961375E-01
C35 -4.995616803677E-01 -4.131635521616E-01  1.941305620299E-01
C36  4.995616803677E-01  4.131635521616E-01 -1.941305620299E-01
C37  4.426638727193E-01 -2.986002317157E-01  1.046602025783E-01
C38 -4.426638727193E-01  2.986002317157E-01 -1.046602025783E-01
C39  4.598731719244E-01 -3.880650401791E-01  4.425651664070E-03
C40 -4.598731719244E-01  3.880650401791E-01 -4.425651664070E-03
C41  4.048205016915E-01 -2.745145783137E-01 -8.341423456598E-02
C42 -4.048205016915E-01  2.745145783137E-01  8.341423456598E-02
C43 -4.221024374792E-01  3.655337850057E-01  1.815765495217E-01
C44  4.221024374792E-01 -3.655337850057E-01 -1.815765495217E-01
C45 -3.675259476431E-01  2.554995483040E-01  2.699667193200E-01
C46  3.675259476431E-01 -2.554995483040E-01 -2.699667193200E-01
C47 -3.795976159277E-01  3.417902057798E-01  3.668562284880E-01
C48  3.795976159277E-01 -3.417902057798E-01 -3.668562284880E-01
H49 -4.685343356593E-01 -3.508302749714E-01  4.544523994441E-01
H50  4.685343356593E-01  3.508302749714E-01 -4.544523994441E-01
H51  4.282337160613E-01 -1.468157126929E-01  3.048650298237E-01
H52 -4.282337160613E-01  1.468157126929E-01 -3.048650298237E-01
H53  3.836202455957E-01 -1.304639176351E-01  1.132349226146E-01
H54 -3.836202455957E-01  1.304639176351E-01 -1.132349226146E-01
H55  3.483204027699E-01 -1.109666583840E-01 -7.321972878709E-02
H56 -3.483204027699E-01  1.109666583840E-01  7.321972878709E-02
H57 -3.110804620426E-01  8.750476944417E-02  2.566841454451E-01
H58  3.110804620426E-01 -8.750476944417E-02 -2.566841454451E-01
H59 -3.354428010380E-01  2.523266831865E-01  4.300391193042E-01
H60  3.354428010380E-01 -2.523266831865E-01 -4.300391193042E-01


#===END

data_OPT_STEP_4

_symmetry_space_group_name_H-M 'P 1'
_cell_length_a      7.93047854
_cell_length_b      6.09072865
_cell_length_c     13.58979498
_cell_angle_alpha  101.263209
_cell_angle_beta  113.141693
_cell_angle_gamma   84.721885

loop_
_atom_site_label
_atom_site_fract_x
_atom_site_fract_y
_atom_site_fract_z
C1  1.189574973061E-01  4.454054846249E-02  3.897395172031E-01
C2 -1.189574973061E-01 -4.454054846249E-02 -3.897395172031E-01
C3  1.480477791084E-01  1.631025846816E-01  3.218919359040E-01
C4 -1.480477791084E-01 -1.631025846816E-01 -3.218919359040E-01
C5  8.349800317950E-02  7.622495364848E-02  2.050188814064E-01
C6 -8.349800317950E-02 -7.622495364848E-02 -2.050188814064E-01
C7  1.074333636797E-01  1.927527461605E-01  1.348150658587E-01
C8 -1.074333636797E-01 -1.927527461605E-01 -1.348150658587E-01
C9  4.485202267847E-02  1.086321365721E-01  2.053132859606E-02
C10 -4.485202267847E-02 -1.086321365721E-01 -2.053132859606E-02
C11  6.412361685555E-02  2.232199770025E-01 -5.329860058005E-02
C12 -6.412361685555E-02 -2.232199770025E-01  5.329860058005E-02
C13 -1.539814903588E-03 -1.366888288676E-01  1.650840104395E-01
C14  1.539814903588E-03  1.366888288676E-01 -1.650840104395E-01
C15 -3.083521193180E-02 -2.562125435396E-01  2.386294730092E-01
C16  3.083521193180E-02  2.562125435396E-01 -2.386294730092E-01
C17  3.106796058533E-02 -1.707037720658E-01  3.495825257971E-01
C18 -3.106796058533E-02  1.707037720658E-01 -3.495825257971E-01
H19  1.620597072694E-01  1.160383881694E-01  4.728408937286E-01
H20 -1.620597072694E-01 -1.160383881694E-01 -4.728408937286E-01
H21  2.123380120984E-01  3.238394388895E-01  3.499476842923E-01
H22 -2.123380120984E-01 -3.238394388895E-01 -3.499476842923E-01
H23  1.749031116136E-01  3.551326587045E-01  1.640382106803E-01
H24 -1.749031116136E-01 -3.551326587045E-01 -1.640382106803E-01
H25  1.288982138363E-01  3.875475525485E-01 -2.368592797773E-02
H26 -1.288982138363E-01 -3.875475525485E-01  2.368592797773E-02
H27 -9.117151410066E-02 -4.174387291000E-01  2.058609769668E-01
H28  9.117151410066E-02  4.174387291000E-01 -2.058609769668E-01
H29  1.072545361584E-02 -2.617176605229E-01  4.029981689601E-01
H30 -1.072545361584E-02  2.617176605229E-01 -4.029981689601E-01
C31 -4.596479379580E-01 -4.323031345428E-01  3.782660518307E-01
C32  4.596479379580E-01  4.323031345428E-01 -3.782660518307E-01
C33  4.789796264721E-01 -3.140783441025E-01  2.933374891655E-01
C34 -4.789796264721E-01  3.140783441025E-01 -2.933374891655E-01
C35  4.975217450718E-01 -4.130093846010E-01  1.934256225718E-01
C36 -4.975217450718E-01  4.130093846010E-01 -1.934256225718E-01
C37  4.449481160553E-01 -2.945290577286E-01  1.062351147024E-01
C38 -4.449481160553E-01  2.945290577286E-01 -1.062351147024E-01
C39  4.648481569590E-01 -3.847511555925E-01  6.380771414808E-03
C40 -4.648481569590E-01  3.847511555925E-01 -6.380771414808E-03
C41  4.127807684223E-01 -2.676079550902E-01 -8.013542834500E-02
C42 -4.127807684223E-01  2.676079550902E-01  8.013542834500E-02
C43 -4.292559473105E-01  3.609417857309E-01  1.789491554957E-01
C44  4.292559473105E-01 -3.609417857309E-01 -1.789491554957E-01
C45 -3.735515546671E-01  2.494739518402E-01  2.674325076648E-01
C46  3.735515546671E-01 -2.494739518402E-01 -2.674325076648E-01
C47 -3.868525123402E-01  3.390697464754E-01  3.644952237499E-01
C48  3.868525123402E-01 -3.390697464754E-01 -3.644952237499E-01
H49 -4.709618057733E-01 -3.506641348320E-01  4.548804788072E-01
H50  4.709618057733E-01  3.506641348320E-01 -4.548804788072E-01
H51  4.206199936488E-01 -1.466758482250E-01  3.048217405291E-01
H52 -4.206199936488E-01  1.466758482250E-01 -3.048217405291E-01
H53  3.881989867063E-01 -1.233879129534E-01  1.163983253552E-01
H54 -3.881989867063E-01  1.233879129534E-01 -1.163983253552E-01
H55  3.578208610770E-01 -1.002870963364E-01 -6.885002858664E-02
H56 -3.578208610770E-01  1.002870963364E-01  6.885002858664E-02
H57 -3.141739045097E-01  8.054564001581E-02  2.548827050945E-01
H58  3.141739045097E-01 -8.054564001581E-02 -2.548827050945E-01
H59 -3.400328979093E-01  2.505152270817E-01  4.289636275259E-01
H60  3.400328979093E-01 -2.505152270817E-01 -4.289636275259E-01


#===END

data_OPT_STEP_5

_symmetry_space_group_name_H-M 'P 1'
_cell_length_a      7.75229138
_cell_length_b      6.11102425
_cell_length_c     13.57925117
_cell_angle_alpha   99.772475
_cell_angle_beta  112.671136
_cell_angle_gamma   87.433739

loop_
_atom_site_label
_atom_site_fract_x
_atom_site_fract_y
_atom_site_fract_z
C1  1.105511869246E-01  2.924474611619E-02  3.869691655630E-01
C2 -1.105511869246E-01 -2.924474611619E-02 -3.869691655630E-01
C3  1.431809309057E-01  1.522889964531E-01  3.199141202348E-01
C4 -1.431809309057E-01 -1.522889964531E-01 -3.199141202348E-01
C5  7.842030318925E-02  6.985813115714E-02  2.037866944652E-01
C6 -7.842030318925E-02 -6.985813115714E-02 -2.037866944652E-01
C7  1.043983512843E-01  1.927935296345E-01  1.340238846784E-01
C8 -1.043983512843E-01 -1.927935296345E-01 -1.340238846784E-01
C9  4.603308596420E-02  1.096328948819E-01  2.080530666390E-02
C10 -4.603308596420E-02 -1.096328948819E-01 -2.080530666390E-02
C11  7.099974246003E-02  2.292380819557E-01 -5.191249470860E-02
C12 -7.099974246003E-02 -2.292380819557E-01  5.191249470860E-02
C13 -5.783722769655E-03 -1.479898020893E-01  1.635101289872E-01
C14  5.783722769655E-03  1.479898020893E-01 -1.635101289872E-01
C15 -4.026173700655E-02 -2.711551857432E-01  2.361136338716E-01
C16  4.026173700655E-02  2.711551857432E-01 -2.361136338716E-01
C17  1.863213011278E-02 -1.870004387604E-01  3.458944536158E-01
C18 -1.863213011278E-02  1.870004387604E-01 -3.458944536158E-01
H19  1.521703265352E-01  9.902834901434E-02  4.707504774673E-01
H20 -1.521703265352E-01 -9.902834901434E-02 -4.707504774673E-01
H21  2.088292180574E-01  3.162198058016E-01  3.488379078008E-01
H22 -2.088292180574E-01 -3.162198058016E-01 -3.488379078008E-01
H23  1.725589582319E-01  3.581787137939E-01  1.639778998887E-01
H24 -1.725589582319E-01 -3.581787137939E-01 -1.639778998887E-01
H25  1.401568062284E-01  3.941842204387E-01 -2.134716757912E-02
H26 -1.401568062284E-01 -3.941842204387E-01  2.134716757912E-02
H27 -1.026884442282E-01 -4.347939537810E-01  2.035272728630E-01
H28  1.026884442282E-01  4.347939537810E-01 -2.035272728630E-01
H29 -6.713558826444E-03 -2.803335759745E-01  3.992216579554E-01
H30  6.713558826444E-03  2.803335759745E-01 -3.992216579554E-01
C31 -4.518591183851E-01 -4.258567148218E-01  3.795159470632E-01
C32  4.518591183851E-01  4.258567148218E-01 -3.795159470632E-01
C33  4.842994867681E-01 -3.130497065299E-01  2.926972493259E-01
C34 -4.842994867681E-01  3.130497065299E-01 -2.926972493259E-01
C35 -4.975753590420E-01 -4.099474513929E-01  1.933060708750E-01
C36  4.975753590420E-01  4.099474513929E-01 -1.933060708750E-01
C37  4.404139376816E-01 -2.997960593659E-01  1.030346719942E-01
C38 -4.404139376816E-01  2.997960593659E-01 -1.030346719942E-01
C39  4.606958173426E-01 -3.892042855224E-01  4.253600918303E-03
C40 -4.606958173426E-01  3.892042855224E-01 -4.253600918303E-03
C41  3.976957267674E-01 -2.809416451836E-01 -8.605898733713E-02
C42 -3.976957267674E-01  2.809416451836E-01  8.605898733713E-02
C43 -4.173568950215E-01  3.718839505944E-01  1.831864016489E-01
C44  4.173568950215E-01 -3.718839505944E-01 -1.831864016489E-01
C45 -3.580942736006E-01  2.639768357091E-01  2.740763936887E-01
C46  3.580942736006E-01 -2.639768357091E-01 -2.740763936887E-01
C47 -3.743092280775E-01  3.536635579209E-01  3.696346506424E-01
C48  3.743092280775E-01 -3.536635579209E-01 -3.696346506424E-01
H49 -4.663155684820E-01 -3.477776178370E-01  4.551054080240E-01
H50  4.663155684820E-01  3.477776178370E-01 -4.551054080240E-01
H51  4.259159699694E-01 -1.478786950417E-01  3.019458967887E-01
H52 -4.259159699694E-01  1.478786950417E-01 -3.019458967887E-01
H53  3.785839955614E-01 -1.342574593175E-01  1.101676882480E-01
H54 -3.785839955614E-01  1.342574593175E-01 -1.101676882480E-01
H55  3.367932885477E-01 -1.183882762370E-01 -7.825216721483E-02
H56 -3.367932885477E-01  1.183882762370E-01  7.825216721483E-02
H57 -2.970675651810E-01  9.833117110808E-02  2.646922331992E-01
H58  2.970675651810E-01 -9.833117110808E-02 -2.646922331992E-01
H59 -3.220838859989E-01  2.701586844734E-01  4.375600093611E-01
H60  3.220838859989E-01 -2.701586844734E-01 -4.375600093611E-01


#===END

data_OPT_STEP_6

_symmetry_space_group_name_H-M 'P 1'
_cell_length_a      7.96964316
_cell_length_b      6.16557583
_cell_length_c     13.65772799
_cell_angle_alpha  100.532932
_cell_angle_beta  112.823505
_cell_angle_gamma   86.436339

loop_
_atom_site_label
_atom_site_fract_x
_atom_site_fract_y
_atom_site_fract_z
C1  1.278117542179E-01  3.115843509022E-02  3.889046606947E-01
C2 -1.278117542179E-01 -3.115843509022E-02 -3.889046606947E-01
C3  1.484427900075E-01  1.554175560125E-01  3.197609425350E-01
C4 -1.484427900075E-01 -1.554175560125E-01 -3.197609425350E-01
C5  9.305673093127E-02  6.719576608274E-02  2.056383522397E-01
C6 -9.305673093127E-02 -6.719576608274E-02 -2.056383522397E-01
C7  1.150443745350E-01  1.874907120826E-01  1.336516513415E-01
C8 -1.150443745350E-01 -1.874907120826E-01 -1.336516513415E-01
C9  4.346621572223E-02  1.086989176756E-01  2.034516852498E-02
C10 -4.346621572223E-02 -1.086989176756E-01 -2.034516852498E-02
C11  6.047069590593E-02  2.321041718482E-01 -5.367076932296E-02
C12 -6.047069590593E-02 -2.321041718482E-01  5.367076932296E-02
C13  4.242787712953E-03 -1.484931612243E-01  1.647617744980E-01
C14 -4.242787712953E-03  1.484931612243E-01 -1.647617744980E-01
C15 -1.857845224618E-02 -2.702096215920E-01  2.400819364391E-01
C16  1.857845224618E-02  2.702096215920E-01 -2.400819364391E-01
C17  3.310194787369E-02 -1.786297608499E-01  3.474486423746E-01
C18 -3.310194787369E-02  1.786297608499E-01 -3.474486423746E-01
H19  1.748727095923E-01  9.689000018402E-02  4.761652673324E-01
H20 -1.748727095923E-01 -9.689000018402E-02 -4.761652673324E-01
H21  2.087999895230E-01  3.243264747850E-01  3.504994949389E-01
H22 -2.087999895230E-01 -3.243264747850E-01 -3.504994949389E-01
H23  1.814179328550E-01  3.534340904220E-01  1.643840412133E-01
H24 -1.814179328550E-01 -3.534340904220E-01 -1.643840412133E-01
H25  1.239215618810E-01  3.996962756474E-01 -2.299379195500E-02
H26 -1.239215618810E-01 -3.996962756474E-01  2.299379195500E-02
H27 -8.480449106682E-02 -4.355982678789E-01  2.089656623581E-01
H28  8.480449106682E-02  4.355982678789E-01 -2.089656623581E-01
H29  2.221333317353E-03 -2.664369283777E-01  4.028831696748E-01
H30 -2.221333317353E-03  2.664369283777E-01 -4.028831696748E-01
C31 -4.565951179298E-01 -4.257067601281E-01  3.773485941672E-01
C32  4.565951179298E-01  4.257067601281E-01 -3.773485941672E-01
C33  4.822237468214E-01 -3.139511076007E-01  2.915434996373E-01
C34 -4.822237468214E-01  3.139511076007E-01 -2.915434996373E-01
C35  4.902265817037E-01 -4.138436231760E-01  1.888686917696E-01
C36 -4.902265817037E-01  4.138436231760E-01 -1.888686917696E-01
C37  4.411048834926E-01 -2.968026418063E-01  1.030377868514E-01
C38 -4.411048834926E-01  2.968026418063E-01 -1.030377868514E-01
C39  4.633975189219E-01 -3.889822932183E-01  5.544185012558E-03
C40 -4.633975189219E-01  3.889822932183E-01 -5.544185012558E-03
C41  4.147353394982E-01 -2.713845653429E-01 -8.173944870834E-02
C42 -4.147353394982E-01  2.713845653429E-01  8.173944870834E-02
C43 -4.349320742928E-01  3.647401908443E-01  1.783147408711E-01
C44  4.349320742928E-01 -3.647401908443E-01 -1.783147408711E-01
C45 -3.661265992522E-01  2.580159181642E-01  2.716914809254E-01
C46  3.661265992522E-01 -2.580159181642E-01 -2.716914809254E-01
C47 -3.710717243098E-01  3.620987707853E-01  3.694700631484E-01
C48  3.710717243098E-01 -3.620987707853E-01 -3.694700631484E-01
H49 -4.670130934672E-01 -3.482725354214E-01  4.551875122128E-01
H50  4.670130934672E-01  3.482725354214E-01 -4.551875122128E-01
H51  4.355121936291E-01 -1.397588803256E-01  3.020542895916E-01
H52 -4.355121936291E-01  1.397588803256E-01 -3.020542895916E-01
H53  3.959782473153E-01 -1.218447918058E-01  1.142640947484E-01
H54 -3.959782473153E-01  1.218447918058E-01 -1.142640947484E-01
H55  3.650368085690E-01 -9.882735380261E-02 -7.219830120439E-02
H56 -3.650368085690E-01  9.882735380261E-02  7.219830120439E-02
H57 -3.153978307134E-01  8.556636909020E-02  2.624401067926E-01
H58  3.153978307134E-01 -8.556636909020E-02 -2.624401067926E-01
H59 -3.010308330939E-01  2.884439654728E-01  4.445487299239E-01
H60  3.010308330939E-01 -2.884439654728E-01 -4.445487299239E-01


#===END

data_OPT_STEP_7

_symmetry_space_group_name_H-M 'P 1'
_cell_length_a      7.86783341
_cell_length_b      6.16032168
_cell_length_c     13.68150092
_cell_angle_alpha  100.649086
_cell_angle_beta  113.037926
_cell_angle_gamma   85.982783

loop_
_atom_site_label
_atom_site_fract_x
_atom_site_fract_y
_atom_site_fract_z
C1  1.143353354331E-01  4.353818702116E-02  3.878151044172E-01
C2 -1.143353354331E-01 -4.353818702116E-02 -3.878151044172E-01
C3  1.348043474993E-01  1.669558724191E-01  3.182706228574E-01
C4 -1.348043474993E-01 -1.669558724191E-01 -3.182706228574E-01
C5  8.506156154464E-02  7.508914071477E-02  2.051419949929E-01
C6 -8.506156154464E-02 -7.508914071477E-02 -2.051419949929E-01
C7  1.107739829815E-01  1.922268788721E-01  1.326908892853E-01
C8 -1.107739829815E-01 -1.922268788721E-01 -1.326908892853E-01
C9  4.291975920006E-02  1.089604765696E-01  2.026110878599E-02
C10 -4.291975920006E-02 -1.089604765696E-01 -2.026110878599E-02
C11  6.387763027290E-02  2.308837930796E-01 -5.361011845143E-02
C12 -6.387763027290E-02 -2.308837930796E-01  5.361011845143E-02
C13 -1.038556317499E-02 -1.389006337636E-01  1.635257666859E-01
C14  1.038556317499E-02  1.389006337636E-01 -1.635257666859E-01
C15 -2.363733607667E-02 -2.649681854542E-01  2.404974680837E-01
C16  2.363733607667E-02  2.649681854542E-01 -2.404974680837E-01
C17  3.581684601731E-02 -1.767544534217E-01  3.478043395491E-01
C18 -3.581684601731E-02  1.767544534217E-01 -3.478043395491E-01
H19  1.586835853111E-01  1.109399959360E-01  4.761241075326E-01
H20 -1.586835853111E-01 -1.109399959360E-01 -4.761241075326E-01
H21  1.978279800225E-01  3.365908130356E-01  3.502451427341E-01
H22 -1.978279800225E-01 -3.365908130356E-01 -3.502451427341E-01
H23  1.769677621117E-01  3.595030876231E-01  1.637934245614E-01
H24 -1.769677621117E-01 -3.595030876231E-01 -1.637934245614E-01
H25  1.272522954160E-01  3.996641257503E-01 -2.279773350900E-02
H26 -1.272522954160E-01 -3.996641257503E-01  2.279773350900E-02
H27 -9.290651696833E-02 -4.314046004584E-01  2.094480000290E-01
H28  9.290651696833E-02  4.314046004584E-01 -2.094480000290E-01
H29  1.976808847301E-02 -2.739377262363E-01  4.053614508602E-01
H30 -1.976808847301E-02  2.739377262363E-01 -4.053614508602E-01
C31 -4.557033099153E-01 -4.264636883509E-01  3.769620255551E-01
C32  4.557033099153E-01  4.264636883509E-01 -3.769620255551E-01
C33  4.768519632381E-01 -3.172684301588E-01  2.902684205898E-01
C34 -4.768519632381E-01  3.172684301588E-01 -2.902684205898E-01
C35  4.924161700320E-01 -4.119749614588E-01  1.888114036950E-01
C36 -4.924161700320E-01  4.119749614588E-01 -1.888114036950E-01
C37  4.346318722634E-01 -2.980180640320E-01  1.018326701793E-01
C38 -4.346318722634E-01  2.980180640320E-01 -1.018326701793E-01
C39  4.544820446303E-01 -3.928348665772E-01  3.897372206081E-03
C40 -4.544820446303E-01  3.928348665772E-01 -3.897372206081E-03
C41  3.988296799734E-01 -2.771195244170E-01 -8.492359069737E-02
C42 -3.988296799734E-01  2.771195244170E-01  8.492359069737E-02
C43 -4.202693422972E-01  3.710382852170E-01  1.811287386595E-01
C44  4.202693422972E-01 -3.710382852170E-01 -1.811287386595E-01
C45 -3.435256994244E-01  2.651017022184E-01  2.762462779400E-01
C46  3.435256994244E-01 -2.651017022184E-01 -2.762462779400E-01
C47 -3.682131022134E-01  3.621441579475E-01  3.690564507801E-01
C48  3.682131022134E-01 -3.621441579475E-01 -3.690564507801E-01
H49 -4.631129653905E-01 -3.487338336582E-01  4.560031795396E-01
H50  4.631129653905E-01  3.487338336582E-01 -4.560031795396E-01
H51  4.056334608742E-01 -1.534153326431E-01  2.951813809695E-01
H52 -4.056334608742E-01  1.534153326431E-01 -2.951813809695E-01
H53  3.704653032471E-01 -1.312628288316E-01  1.089066897938E-01
H54 -3.704653032471E-01  1.312628288316E-01 -1.089066897938E-01
H55  3.297438435310E-01 -1.115848891389E-01 -7.986040814003E-02
H56 -3.297438435310E-01  1.115848891389E-01  7.986040814003E-02
H57 -2.634775673619E-01  1.061045863836E-01  2.741889713223E-01
H58  2.634775673619E-01 -1.061045863836E-01 -2.741889713223E-01
H59 -3.146835607495E-01  2.790017285847E-01  4.413144659641E-01
H60  3.146835607495E-01 -2.790017285847E-01 -4.413144659641E-01


#===END

data_OPT_STEP_8

_symmetry_space_group_name_H-M 'P 1'
_cell_length_a      7.96338422
_cell_length_b      6.16323728
_cell_length_c     13.65587800
_cell_angle_alpha  100.815180
_cell_angle_beta  112.821040
_cell_angle_gamma   85.793198

loop_
_atom_site_label
_atom_site_fract_x
_atom_site_fract_y
_atom_site_fract_z
C1  1.272274618993E-01  4.042731640091E-02  3.897136571878E-01
C2 -1.272274618993E-01 -4.042731640091E-02 -3.897136571878E-01
C3  1.477140622118E-01  1.617586837432E-01  3.197523410107E-01
C4 -1.477140622118E-01 -1.617586837432E-01 -3.197523410107E-01
C5  8.538347306474E-02  7.628700457181E-02  2.052978903925E-01
C6 -8.538347306474E-02 -7.628700457181E-02 -2.052978903925E-01
C7  1.060875618722E-01  1.949134431053E-01  1.323665434354E-01
C8 -1.060875618722E-01 -1.949134431053E-01 -1.323665434354E-01
C9  4.431402452125E-02  1.077320616771E-01  2.006386706040E-02
C10 -4.431402452125E-02 -1.077320616771E-01 -2.006386706040E-02
C11  6.610833467580E-02  2.256380021340E-01 -5.427725392515E-02
C12 -6.610833467580E-02 -2.256380021340E-01  5.427725392515E-02
C13 -1.401845948662E-03 -1.403853651716E-01  1.652025689248E-01
C14  1.401845948662E-03  1.403853651716E-01 -1.652025689248E-01
C15 -2.187367809478E-02 -2.603897595099E-01  2.414921633064E-01
C16  2.187367809478E-02  2.603897595099E-01 -2.414921633064E-01
C17  3.885283350859E-02 -1.724940486044E-01  3.496200346957E-01
C18 -3.885283350859E-02  1.724940486044E-01 -3.496200346957E-01
H19  1.741069810313E-01  1.077383765011E-01  4.771934421809E-01
H20 -1.741069810313E-01 -1.077383765011E-01 -4.771934421809E-01
H21  2.103243925482E-01  3.291232393716E-01  3.501991890178E-01
H22 -2.103243925482E-01 -3.291232393716E-01 -3.501991890178E-01
H23  1.730675409176E-01  3.599255001813E-01  1.627498188688E-01
H24 -1.730675409176E-01 -3.599255001812E-01 -1.627498188688E-01
H25  1.370815144256E-01  3.883767882824E-01 -2.345044077097E-02
H26 -1.370815144256E-01 -3.883767882824E-01  2.345044077097E-02
H27 -8.972530613859E-02 -4.249561980680E-01  2.104457631982E-01
H28  8.972530613859E-02  4.249561980680E-01 -2.104457631982E-01
H29  1.878467419048E-02 -2.655866029138E-01  4.064732554770E-01
H30 -1.878467419048E-02  2.655866029138E-01 -4.064732554770E-01
C31 -4.544106517421E-01 -4.253345832302E-01  3.782403842993E-01
C32  4.544106517421E-01  4.253345832302E-01 -3.782403842993E-01
C33  4.891188439657E-01 -3.097902032496E-01  2.937830588187E-01
C34 -4.891188439657E-01  3.097902032496E-01 -2.937830588187E-01
C35 -4.976939851869E-01 -4.070888047338E-01  1.919472135198E-01
C36  4.976939851869E-01  4.070888047338E-01 -1.919472135198E-01
C37  4.497638810563E-01 -2.908367641913E-01  1.056527795439E-01
C38 -4.497638810563E-01  2.908367641913E-01 -1.056527795439E-01
C39  4.657493275794E-01 -3.872128133462E-01  6.356421269834E-03
C40 -4.657493275794E-01  3.872128133462E-01 -6.356421269834E-03
C41  4.132786236449E-01 -2.702516615047E-01 -8.149197894080E-02
C42 -4.132786236449E-01  2.702516615047E-01  8.149197894080E-02
C43 -4.256149383266E-01  3.686159426808E-01  1.801853054072E-01
C44  4.256149383266E-01 -3.686159426808E-01 -1.801853054072E-01
C45 -3.686654327610E-01  2.535730436915E-01  2.706685818399E-01
C46  3.686654327610E-01 -2.535730436915E-01 -2.706685818399E-01
C47 -3.714144787535E-01  3.597238189523E-01  3.690586889280E-01
C48  3.714144787535E-01 -3.597238189523E-01 -3.690586889280E-01
H49 -4.657251522384E-01 -3.482172623068E-01  4.560772163753E-01
H50  4.657251522384E-01  3.482172623068E-01 -4.560772163753E-01
H51  4.346561006230E-01 -1.388083045016E-01  3.030598732751E-01
H52 -4.346561006230E-01  1.388083045016E-01 -3.030598732751E-01
H53  3.948296649408E-01 -1.200049323104E-01  1.149433651201E-01
H54 -3.948296649408E-01  1.200049323104E-01 -1.149433651201E-01
H55  3.591973809818E-01 -9.882451435361E-02 -7.243835923005E-02
H56 -3.591973809818E-01  9.882451435361E-02  7.243835923005E-02
H57 -3.240032002060E-01  7.784680304642E-02  2.594530500112E-01
H58  3.240032002060E-01 -7.784680304642E-02 -2.594530500112E-01
H59 -3.143195334332E-01  2.784721413527E-01  4.411215766002E-01
H60  3.143195334332E-01 -2.784721413527E-01 -4.411215766002E-01


#===END

data_OPT_STEP_9

_symmetry_space_group_name_H-M 'P 1'
_cell_length_a      7.93922117
_cell_length_b      6.13507519
_cell_length_c     13.64382884
_cell_angle_alpha  100.882845
_cell_angle_beta  112.651069
_cell_angle_gamma   85.818350

loop_
_atom_site_label
_atom_site_fract_x
_atom_site_fract_y
_atom_site_fract_z
C1  1.258699904369E-01  4.081840790485E-02  3.897271003236E-01
C2 -1.258699904369E-01 -4.081840790485E-02 -3.897271003236E-01
C3  1.471823245107E-01  1.623221474018E-01  3.198440678798E-01
C4 -1.471823245107E-01 -1.623221474018E-01 -3.198440678798E-01
C5  8.495353931395E-02  7.643244180859E-02  2.053439768993E-01
C6 -8.495353931395E-02 -7.643244180859E-02 -2.053439768993E-01
C7  1.062684518882E-01  1.955584720257E-01  1.325128833326E-01
C8 -1.062684518882E-01 -1.955584720257E-01 -1.325128833326E-01
C9  4.424350308407E-02  1.084254496376E-01  2.008857193325E-02
C10 -4.424350308407E-02 -1.084254496376E-01 -2.008857193325E-02
C11  6.572226557570E-02  2.273031995720E-01 -5.430010593999E-02
C12 -6.572226557570E-02 -2.273031995720E-01  5.430010593999E-02
C13 -2.169733323167E-03 -1.411561530644E-01  1.651782441381E-01
C14  2.169733323167E-03  1.411561530644E-01 -1.651782441381E-01
C15 -2.602115476585E-02 -2.598120885882E-01  2.410369562231E-01
C16  2.602115476585E-02  2.598120885882E-01 -2.410369562231E-01
C17  3.232556028051E-02 -1.700335249509E-01  3.491251790216E-01
C18 -3.232556028051E-02  1.700335249509E-01 -3.491251790216E-01
H19  1.755475446531E-01  1.068440918812E-01  4.774660335354E-01
H20 -1.755475446531E-01 -1.068440918812E-01 -4.774660335354E-01
H21  2.108062611888E-01  3.298648552949E-01  3.502671332701E-01
H22 -2.108062611888E-01 -3.298648552949E-01 -3.502671332701E-01
H23  1.725554106159E-01  3.617661047782E-01  1.629070226249E-01
H24 -1.725554106159E-01 -3.617661047782E-01 -1.629070226249E-01
H25  1.349668860488E-01  3.918314927245E-01 -2.359726843247E-02
H26 -1.349668860488E-01 -3.918314927245E-01  2.359726843247E-02
H27 -9.269604703805E-02 -4.256398860526E-01  2.101197244007E-01
H28  9.269604703805E-02  4.256398860526E-01 -2.101197244007E-01
H29  8.446105578886E-03 -2.615112811288E-01  4.056633296413E-01
H30 -8.446105578886E-03  2.615112811288E-01 -4.056633296413E-01
C31 -4.538997744415E-01 -4.250422442197E-01  3.786308538721E-01
C32  4.538997744415E-01  4.250422442197E-01 -3.786308538721E-01
C33  4.912796859539E-01 -3.076670475958E-01  2.947199599447E-01
C34 -4.912796859539E-01  3.076670475958E-01 -2.947199599447E-01
C35 -4.976921614885E-01 -4.067558286893E-01  1.922309455494E-01
C36  4.976921614885E-01  4.067558286893E-01 -1.922309455494E-01
C37  4.484459070998E-01 -2.906540620969E-01  1.056794718374E-01
C38 -4.484459070998E-01  2.906540620969E-01 -1.056794718374E-01
C39  4.644628586846E-01 -3.872787514844E-01  6.189567952339E-03
C40 -4.644628586846E-01  3.872787514844E-01 -6.189567952339E-03
C41  4.111202336224E-01 -2.703578515978E-01 -8.178559150553E-02
C42 -4.111202336224E-01  2.703578515978E-01  8.178559150553E-02
C43 -4.251416957486E-01  3.681494176453E-01  1.802541391640E-01
C44  4.251416957486E-01 -3.681494176453E-01 -1.802541391640E-01
C45 -3.688006692599E-01  2.523398891283E-01  2.705697721729E-01
C46  3.688006692599E-01 -2.523398891283E-01 -2.705697721729E-01
C47 -3.770226875474E-01  3.556452568737E-01  3.677855699613E-01
C48  3.770226875474E-01 -3.556452568737E-01 -3.677855699613E-01
H49 -4.653062333409E-01 -3.476653640283E-01  4.565161138236E-01
H50  4.653062333409E-01  3.476653640283E-01 -4.565161138236E-01
H51  4.397980043078E-01 -1.344616957326E-01  3.049543160558E-01
H52 -4.397980043078E-01  1.344616957326E-01 -3.049543160558E-01
H53  3.940344012586E-01 -1.187284061698E-01  1.152726629735E-01
H54 -3.940344012586E-01  1.187284061698E-01 -1.152726629735E-01
H55  3.570468290900E-01 -9.825532248849E-02 -7.244595689083E-02
H56 -3.570468290900E-01  9.825532248849E-02  7.244595689083E-02
H57 -3.191055073191E-01  7.872200381311E-02  2.601568487686E-01
H58  3.191055073191E-01 -7.872200381311E-02 -2.601568487686E-01
H59 -3.257491669538E-01  2.706376691271E-01  4.384145142996E-01
H60  3.257491669538E-01 -2.706376691271E-01 -4.384145142996E-01


#===END

data_OPT_STEP_10

_symmetry_space_group_name_H-M 'P 1'
_cell_length_a      7.91581491
_cell_length_b      6.12966097
_cell_length_c     13.63298387
_cell_angle_alpha  100.762821
_cell_angle_beta  112.705598
_cell_angle_gamma   85.605338

loop_
_atom_site_label
_atom_site_fract_x
_atom_site_fract_y
_atom_site_fract_z
C1  1.278881436317E-01  4.007196631779E-02  3.902730042919E-01
C2 -1.278881436317E-01 -4.007196631779E-02 -3.902730042919E-01
C3  1.488135940295E-01  1.614573327165E-01  3.200828701361E-01
C4 -1.488135940295E-01 -1.614573327165E-01 -3.200828701361E-01
C5  8.614516809255E-02  7.571790667449E-02  2.055591169435E-01
C6 -8.614516809255E-02 -7.571790667449E-02 -2.055591169435E-01
C7  1.073459066057E-01  1.947320307304E-01  1.324913857982E-01
C8 -1.073459066057E-01 -1.947320307304E-01 -1.324913857982E-01
C9  4.430488834201E-02  1.083080190143E-01  1.995108309281E-02
C10 -4.430488834201E-02 -1.083080190143E-01 -1.995108309281E-02
C11  6.506880799603E-02  2.273885705675E-01 -5.477393913185E-02
C12 -6.506880799603E-02 -2.273885705675E-01  5.477393913185E-02
C13 -5.632537049814E-04 -1.419052630197E-01  1.657133877161E-01
C14  5.632537049814E-04  1.419052630197E-01 -1.657133877161E-01
C15 -2.402779850577E-02 -2.604786094982E-01  2.418674517330E-01
C16  2.402779850577E-02  2.604786094982E-01 -2.418674517330E-01
C17  3.630853284066E-02 -1.717954215223E-01  3.501942541471E-01
C18 -3.630853284066E-02  1.717954215223E-01 -3.501942541471E-01
H19  1.774528808152E-01  1.064503148895E-01  4.779636108923E-01
H20 -1.774528808152E-01 -1.064503148895E-01 -4.779636108923E-01
H21  2.122451252797E-01  3.288960882309E-01  3.500979614917E-01
H22 -2.122451252797E-01 -3.288960882309E-01 -3.500979614917E-01
H23  1.741143624153E-01  3.604142298146E-01  1.627472533451E-01
H24 -1.741143624153E-01 -3.604142298146E-01 -1.627472533451E-01
H25  1.339463633083E-01  3.918941042326E-01 -2.431511622754E-02
H26 -1.339463633083E-01 -3.918941042326E-01  2.431511622754E-02
H27 -9.101953553884E-02 -4.258746239481E-01  2.110573336482E-01
H28  9.101953553884E-02  4.258746239481E-01 -2.110573336482E-01
H29  1.470137597220E-02 -2.644235641305E-01  4.071332154091E-01
H30 -1.470137597220E-02  2.644235641305E-01 -4.071332154091E-01
C31 -4.537789411463E-01 -4.246184859116E-01  3.788831416813E-01
C32  4.537789411463E-01  4.246184859116E-01 -3.788831416813E-01
C33  4.879463411227E-01 -3.088491884747E-01  2.940341058105E-01
C34 -4.879463411227E-01  3.088491884747E-01 -2.940341058105E-01
C35 -4.991962384161E-01 -4.073636106750E-01  1.920001709533E-01
C36  4.991962384161E-01  4.073636106750E-01 -1.920001709533E-01
C37  4.439787793762E-01 -2.925519151233E-01  1.045414460838E-01
C38 -4.439787793762E-01  2.925519151233E-01 -1.045414460838E-01
C39  4.618546545376E-01 -3.882309331049E-01  5.485564436270E-03
C40 -4.618546545376E-01  3.882309331049E-01 -5.485564436270E-03
C41  4.056951880254E-01 -2.726421339667E-01 -8.333744320760E-02
C42 -4.056951880254E-01  2.726421339667E-01  8.333744320760E-02
C43 -4.219723614617E-01  3.693819627339E-01  1.812689487999E-01
C44  4.219723614617E-01 -3.693819627339E-01 -1.812689487999E-01
C45 -3.632876646415E-01  2.545600193971E-01  2.723350217753E-01
C46  3.632876646415E-01 -2.545600193971E-01 -2.723350217753E-01
C47 -3.736927194397E-01  3.566915694963E-01  3.690263892316E-01
C48  3.736927194397E-01 -3.566915694963E-01 -3.690263892316E-01
H49 -4.662612460900E-01 -3.474513191865E-01  4.564390268138E-01
H50  4.662612460900E-01  3.474513191865E-01 -4.564390268138E-01
H51  4.328609371780E-01 -1.371125227402E-01  3.033391938288E-01
H52 -4.328609371780E-01  1.371125227402E-01 -3.033391938288E-01
H53  3.861306607275E-01 -1.218902109999E-01  1.131660170971E-01
H54 -3.861306607275E-01  1.218902109999E-01 -1.131660170971E-01
H55  3.483673984265E-01 -1.018164163635E-01 -7.481741778485E-02
H56 -3.483673984265E-01  1.018164163635E-01  7.481741778485E-02
H57 -3.091440784170E-01  8.293762032264E-02  2.629974184118E-01
H58  3.091440784170E-01 -8.293762032264E-02 -2.629974184118E-01
H59 -3.209832809571E-01  2.718924306532E-01  4.401418599769E-01
H60  3.209832809571E-01 -2.718924306532E-01 -4.401418599769E-01


#===END

data_OPT_STEP_11

_symmetry_space_group_name_H-M 'P 1'
_cell_length_a      7.89709302
_cell_length_b      6.12338394
_cell_length_c     13.62653881
_cell_angle_alpha  100.652349
_cell_angle_beta  112.588260
_cell_angle_gamma   86.229234

loop_
_atom_site_label
_atom_site_fract_x
_atom_site_fract_y
_atom_site_fract_z
C1  1.209080855069E-01  4.350778890592E-02  3.896437798771E-01
C2 -1.209080855069E-01 -4.350778890592E-02 -3.896437798771E-01
C3  1.436485907537E-01  1.647539279580E-01  3.196687860608E-01
C4 -1.436485907537E-01 -1.647539279580E-01 -3.196687860608E-01
C5  8.235447211230E-02  7.786581742939E-02  2.052551624927E-01
C6 -8.235447211230E-02 -7.786581742939E-02 -2.052551624927E-01
C7  1.058145462086E-01  1.966374569479E-01  1.324392949303E-01
C8 -1.058145462086E-01 -1.966374569479E-01 -1.324392949303E-01
C9  4.440796629359E-02  1.089847272746E-01  2.003925024942E-02
C10 -4.440796629359E-02 -1.089847272746E-01 -2.003925024942E-02
C11  6.842315292159E-02  2.273294617828E-01 -5.433042291151E-02
C12 -6.842315292159E-02 -2.273294617828E-01  5.433042291151E-02
C13 -5.642645306013E-03 -1.405416951489E-01  1.651547783130E-01
C14  5.642645306013E-03  1.405416951489E-01 -1.651547783130E-01
C15 -2.720252020621E-02 -2.614811635063E-01  2.415050378604E-01
C16  2.720252020621E-02  2.614811635063E-01 -2.415050378604E-01
C17  3.502199520639E-02 -1.734324808344E-01  3.500161780840E-01
C18 -3.502199520639E-02  1.734324808344E-01 -3.500161780840E-01
H19  1.683932569428E-01  1.117450881173E-01  4.773180549321E-01
H20 -1.683932569428E-01 -1.117450881173E-01 -4.773180549321E-01
H21  2.096722413959E-01  3.318899563954E-01  3.499568905855E-01
H22 -2.096722413959E-01 -3.318899563954E-01 -3.499568905855E-01
H23  1.725605336216E-01  3.634394225860E-01  1.628586445985E-01
H24 -1.725605336216E-01 -3.634394225860E-01 -1.628586445985E-01
H25  1.380817062861E-01  3.924491520659E-01 -2.369384082359E-02
H26 -1.380817062861E-01 -3.924491520659E-01  2.369384082359E-02
H27 -9.437041481680E-02 -4.277672749850E-01  2.105969672572E-01
H28  9.437041481680E-02  4.277672749850E-01 -2.105969672572E-01
H29  1.714284091267E-02 -2.689440086498E-01  4.073786790910E-01
H30 -1.714284091267E-02  2.689440086498E-01 -4.073786790910E-01
C31 -4.523655905223E-01 -4.248311578422E-01  3.792283840053E-01
C32  4.523655905223E-01  4.248311578422E-01 -3.792283840053E-01
C33  4.901375940813E-01 -3.089796390189E-01  2.945745402327E-01
C34 -4.901375940813E-01  3.089796390189E-01 -2.945745402327E-01
C35 -4.966697401209E-01 -4.066653187468E-01  1.925740198153E-01
C36  4.966697401209E-01  4.066653187468E-01 -1.925740198153E-01
C37  4.474756821464E-01 -2.914995413715E-01  1.053472852465E-01
C38 -4.474756821464E-01  2.914995413715E-01 -1.053472852465E-01
C39  4.627154328334E-01 -3.882220739717E-01  5.668306492810E-03
C40 -4.627154328334E-01  3.882220739717E-01 -5.668306492810E-03
C41  4.069802167973E-01 -2.725530998272E-01 -8.310412667997E-02
C42 -4.069802167973E-01  2.725530998272E-01  8.310412667997E-02
C43 -4.224887342548E-01  3.692663823643E-01  1.811957891827E-01
C44  4.224887342548E-01 -3.692663823643E-01 -1.811957891827E-01
C45 -3.638998758534E-01  2.543844848671E-01  2.723452389371E-01
C46  3.638998758534E-01 -2.543844848671E-01 -2.723452389371E-01
C47 -3.767858437275E-01  3.549588793495E-01  3.684275411076E-01
C48  3.767858437275E-01 -3.549588793495E-01 -3.684275411076E-01
H49 -4.637446433775E-01 -3.476362671486E-01  4.570290660200E-01
H50  4.637446433775E-01  3.476362671486E-01 -4.570290660200E-01
H51  4.343561944986E-01 -1.381587693099E-01  3.037084944071E-01
H52 -4.343561944986E-01  1.381587693099E-01 -3.037084944071E-01
H53  3.918007040216E-01 -1.202634521436E-01  1.144152536818E-01
H54 -3.918007040216E-01  1.202634521436E-01 -1.144152536818E-01
H55  3.509132742803E-01 -1.015117152404E-01 -7.427520785534E-02
H56 -3.509132742803E-01  1.015117152404E-01  7.427520785534E-02
H57 -3.081531504767E-01  8.416949299119E-02  2.634285809475E-01
H58  3.081531504767E-01 -8.416949299119E-02 -2.634285809475E-01
H59 -3.277653491222E-01  2.681557195707E-01  4.389186830475E-01
H60  3.277653491222E-01 -2.681557195707E-01 -4.389186830475E-01


#===END

data_OPT_STEP_12

_symmetry_space_group_name_H-M 'P 1'
_cell_length_a      7.85945275
_cell_length_b      6.10637814
_cell_length_c     13.61983073
_cell_angle_alpha  100.710757
_cell_angle_beta  112.638229
_cell_angle_gamma   85.945855

loop_
_atom_site_label
_atom_site_fract_x
_atom_site_fract_y
_atom_site_fract_z
C1  1.193045537986E-01  4.351620017814E-02  3.895875586478E-01
C2 -1.193045537986E-01 -4.351620017814E-02 -3.895875586478E-01
C3  1.427682404282E-01  1.647378911995E-01  3.197623466791E-01
C4 -1.427682404282E-01 -1.647378911995E-01 -3.197623466791E-01
C5  8.059559186884E-02  7.845429948141E-02  2.051978845908E-01
C6 -8.059559186884E-02 -7.845429948141E-02 -2.051978845908E-01
C7  1.049322375159E-01  1.971856156627E-01  1.325068737056E-01
C8 -1.049322375159E-01 -1.971856156627E-01 -1.325068737056E-01
C9  4.493726599538E-02  1.088507320595E-01  2.020651622971E-02
C10 -4.493726599538E-02 -1.088507320595E-01 -2.020651622971E-02
C11  6.928280232547E-02  2.277766482174E-01 -5.402915476376E-02
C12 -6.928280232547E-02 -2.277766482174E-01  5.402915476376E-02
C13 -9.628064508398E-03 -1.392215440080E-01  1.647087338124E-01
C14  9.628064508398E-03  1.392215440080E-01 -1.647087338124E-01
C15 -3.152444207358E-02 -2.603131655894E-01  2.409512596094E-01
C16  3.152444207358E-02  2.603131655894E-01 -2.409512596094E-01
C17  2.995052446601E-02 -1.717058648487E-01  3.494393907044E-01
C18 -2.995052446601E-02  1.717058648487E-01 -3.494393907044E-01
H19  1.682543547108E-01  1.111048596246E-01  4.776201018302E-01
H20 -1.682543547108E-01 -1.111048596246E-01 -4.776201018302E-01
H21  2.087956924037E-01  3.323913016525E-01  3.499878882133E-01
H22 -2.087956924037E-01 -3.323913016525E-01 -3.499878882133E-01
H23  1.718503671761E-01  3.642289149523E-01  1.631501277123E-01
H24 -1.718503671761E-01 -3.642289149523E-01 -1.631501277123E-01
H25  1.372406701972E-01  3.942274201160E-01 -2.333219459023E-02
H26 -1.372406701972E-01 -3.942274201160E-01  2.333219459023E-02
H27 -9.868904745802E-02 -4.269883317379E-01  2.100821269453E-01
H28  9.868904745802E-02  4.269883317379E-01 -2.100821269453E-01
H29  1.091124241247E-02 -2.669160141285E-01  4.067856151036E-01
H30 -1.091124241247E-02  2.669160141285E-01 -4.067856151036E-01
C31 -4.526102272894E-01 -4.249450775469E-01  3.793540198793E-01
C32  4.526102272894E-01  4.249450775469E-01 -3.793540198793E-01
C33  4.885134246036E-01 -3.092521989287E-01  2.943977609453E-01
C34 -4.885134246036E-01  3.092521989287E-01 -2.943977609453E-01
C35 -4.948410695006E-01 -4.055624413231E-01  1.930517048839E-01
C36  4.948410695006E-01  4.055624413231E-01 -1.930517048839E-01
C37  4.468658579262E-01 -2.908214861669E-01  1.053825275667E-01
C38 -4.468658579262E-01  2.908214861669E-01 -1.053825275667E-01
C39  4.631517449324E-01 -3.873198621087E-01  5.892941164896E-03
C40 -4.631517449324E-01  3.873198621087E-01 -5.892941164896E-03
C41  4.048189157070E-01 -2.719866553451E-01 -8.337943833628E-02
C42 -4.048189157070E-01  2.719866553451E-01  8.337943833628E-02
C43 -4.190602763018E-01  3.698266387124E-01  1.818482491549E-01
C44  4.190602763018E-01 -3.698266387124E-01 -1.818482491549E-01
C45 -3.582362538793E-01  2.550267994431E-01  2.735411339692E-01
C46  3.582362538793E-01 -2.550267994431E-01 -2.735411339692E-01
C47 -3.736291357095E-01  3.550497403250E-01  3.691412574114E-01
C48  3.736291357095E-01 -3.550497403250E-01 -3.691412574114E-01
H49 -4.640789618058E-01 -3.474728752620E-01  4.572084867474E-01
H50  4.640789618058E-01  3.474728752620E-01 -4.572084867474E-01
H51  4.260579519464E-01 -1.408041661391E-01  3.021399657385E-01
H52 -4.260579519464E-01  1.408041661391E-01 -3.021399657385E-01
H53  3.835661506570E-01 -1.225043452747E-01  1.128314760194E-01
H54 -3.835661506570E-01  1.225043452747E-01 -1.128314760194E-01
H55  3.428839946492E-01 -1.029021865303E-01 -7.560190712608E-02
H56 -3.428839946492E-01  1.029021865303E-01  7.560190712608E-02
H57 -2.994306358276E-01  8.483300332584E-02  2.652439654397E-01
H58  2.994306358276E-01 -8.483300332584E-02 -2.652439654397E-01
H59 -3.271707283435E-01  2.658860652278E-01  4.391819397673E-01
H60  3.271707283435E-01 -2.658860652278E-01 -4.391819397673E-01


#===END

data_OPT_STEP_13

_symmetry_space_group_name_H-M 'P 1'
_cell_length_a      7.85519763
_cell_length_b      6.10735975
_cell_length_c     13.61559427
_cell_angle_alpha  100.688564
_cell_angle_beta  112.654264
_cell_angle_gamma   86.064804

loop_
_atom_site_label
_atom_site_fract_x
_atom_site_fract_y
_atom_site_fract_z
C1  1.188930602192E-01  4.297814933469E-02  3.895991037512E-01
C2 -1.188930602192E-01 -4.297814933469E-02 -3.895991037512E-01
C3  1.423551471376E-01  1.646034298704E-01  3.198700630565E-01
C4 -1.423551471376E-01 -1.646034298704E-01 -3.198700630565E-01
C5  8.071119856063E-02  7.796770945687E-02  2.052478944593E-01
C6 -8.071119856063E-02 -7.796770945687E-02 -2.052478944593E-01
C7  1.050148001049E-01  1.970802989878E-01  1.326378765107E-01
C8 -1.050148001049E-01 -1.970802989878E-01 -1.326378765107E-01
C9  4.475176690609E-02  1.090955691803E-01  2.025144352376E-02
C10 -4.475176690609E-02 -1.090955691803E-01 -2.025144352376E-02
C11  6.845180862681E-02  2.287164022751E-01 -5.397891912079E-02
C12 -6.845180862681E-02 -2.287164022751E-01  5.397891912079E-02
C13 -8.387438153485E-03 -1.405225263426E-01  1.647747310775E-01
C14  8.387438153485E-03  1.405225263426E-01 -1.647747310775E-01
C15 -3.130305514049E-02 -2.613563670900E-01  2.408039533783E-01
C16  3.130305514049E-02  2.613563670900E-01 -2.408039533783E-01
C17  3.014735788762E-02 -1.728999925832E-01  3.493540787450E-01
C18 -3.014735788762E-02  1.728999925832E-01 -3.493540787450E-01
H19  1.673981903663E-01  1.109385159784E-01  4.776244403298E-01
H20 -1.673981903663E-01 -1.109385159784E-01 -4.776244403298E-01
H21  2.082477516105E-01  3.324517002960E-01  3.500749496584E-01
H22 -2.082477516105E-01 -3.324517002960E-01 -3.500749496584E-01
H23  1.724456978958E-01  3.639377785303E-01  1.634176768159E-01
H24 -1.724456978958E-01 -3.639377785303E-01 -1.634176768159E-01
H25  1.366833574824E-01  3.951373572843E-01 -2.313668582568E-02
H26 -1.366833574824E-01 -3.951373572843E-01  2.313668582568E-02
H27 -9.869552585988E-02 -4.279279478989E-01  2.098443042529E-01
H28  9.869552585988E-02  4.279279478989E-01 -2.098443042529E-01
H29  1.159282609326E-02 -2.686222945947E-01  4.066636995596E-01
H30 -1.159282609326E-02  2.686222945947E-01 -4.066636995596E-01
C31 -4.530134129777E-01 -4.253190778072E-01  3.793513711128E-01
C32  4.530134129777E-01  4.253190778072E-01 -3.793513711128E-01
C33  4.876925981165E-01 -3.099606402866E-01  2.942529340110E-01
C34 -4.876925981165E-01  3.099606402866E-01 -2.942529340110E-01
C35 -4.966909677428E-01 -4.067791042182E-01  1.926715150600E-01
C36  4.966909677428E-01  4.067791042182E-01 -1.926715150600E-01
C37  4.454204336035E-01 -2.918577312311E-01  1.050600804101E-01
C38 -4.454204336035E-01  2.918577312311E-01 -1.050600804101E-01
C39  4.622174030794E-01 -3.878587226948E-01  5.684789443310E-03
C40 -4.622174030794E-01  3.878587226948E-01 -5.684789443310E-03
C41  4.041372002333E-01 -2.724931831009E-01 -8.357529807970E-02
C42 -4.041372002333E-01  2.724931831009E-01  8.357529807970E-02
C43 -4.190051397454E-01  3.698599007170E-01  1.818903595344E-01
C44  4.190051397454E-01 -3.698599007170E-01 -1.818903595344E-01
C45 -3.576389437948E-01  2.554727234264E-01  2.737678130077E-01
C46  3.576389437948E-01 -2.554727234264E-01 -2.737678130077E-01
C47 -3.737460756076E-01  3.549904476956E-01  3.692285079310E-01
C48  3.737460756076E-01 -3.549904476956E-01 -3.692285079310E-01
H49 -4.641821175393E-01 -3.477974241389E-01  4.572567756570E-01
H50  4.641821175393E-01  3.477974241389E-01 -4.572567756570E-01
H51  4.258838796311E-01 -1.413556191085E-01  3.021174534763E-01
H52 -4.258838796311E-01  1.413556191085E-01 -3.021174534763E-01
H53  3.832790128260E-01 -1.231608081393E-01  1.127864944373E-01
H54 -3.832790128260E-01  1.231608081393E-01 -1.127864944373E-01
H55  3.423490609351E-01 -1.035506130823E-01 -7.572424437331E-02
H56 -3.423490609351E-01  1.035506130823E-01  7.572424437331E-02
H57 -2.968967031514E-01  8.619834796166E-02  2.659024231799E-01
H58  2.968967031514E-01 -8.619834796166E-02 -2.659024231799E-01
H59 -3.275208241685E-01  2.656337566052E-01  4.392194232883E-01
H60  3.275208241685E-01 -2.656337566052E-01 -4.392194232883E-01


#===END

data_OPT_STEP_14

_symmetry_space_group_name_H-M 'P 1'
_cell_length_a      7.88276535
_cell_length_b      6.10198374
_cell_length_c     13.61145697
_cell_angle_alpha  100.742744
_cell_angle_beta  112.689083
_cell_angle_gamma   85.895352

loop_
_atom_site_label
_atom_site_fract_x
_atom_site_fract_y
_atom_site_fract_z
C1  1.215619968920E-01  4.292836907489E-02  3.901749696978E-01
C2 -1.215619968920E-01 -4.292836907489E-02 -3.901749696978E-01
C3  1.441340788664E-01  1.646073791194E-01  3.202321400532E-01
C4 -1.441340788664E-01 -1.646073791194E-01 -3.202321400532E-01
C5  8.229588226967E-02  7.770409172609E-02  2.055128182466E-01
C6 -8.229588226967E-02 -7.770409172609E-02 -2.055128182466E-01
C7  1.063302113939E-01  1.964455466709E-01  1.327524602351E-01
C8 -1.063302113939E-01 -1.964455466709E-01 -1.327524602351E-01
C9  4.504126693510E-02  1.088059917793E-01  2.021668451263E-02
C10 -4.504126693510E-02 -1.088059917793E-01 -2.021668451263E-02
C11  6.926797055211E-02  2.275113159419E-01 -5.409336301703E-02
C12 -6.926797055211E-02 -2.275113159419E-01  5.409336301703E-02
C13 -7.202601414611E-03 -1.403117773819E-01  1.651105843721E-01
C14  7.202601414611E-03  1.403117773819E-01 -1.651105843721E-01
C15 -2.881905499506E-02 -2.613630722807E-01  2.414465302464E-01
C16  2.881905499506E-02  2.613630722807E-01 -2.414465302464E-01
C17  3.353119136081E-02 -1.731751202652E-01  3.501103415739E-01
C18 -3.353119136081E-02  1.731751202652E-01 -3.501103415739E-01
H19  1.704050884332E-01  1.110328570673E-01  4.782265198624E-01
H20 -1.704050884332E-01 -1.110328570673E-01 -4.782265198624E-01
H21  2.095120713550E-01  3.325498593145E-01  3.502314716993E-01
H22 -2.095120713550E-01 -3.325498593145E-01 -3.502314716993E-01
H23  1.739302572741E-01  3.629967265419E-01  1.634405405231E-01
H24 -1.739302572741E-01 -3.629967265419E-01 -1.634405405231E-01
H25  1.384571337377E-01  3.932025333771E-01 -2.322947060920E-02
H26 -1.384571337377E-01 -3.932025333771E-01  2.322947060920E-02
H27 -9.619145680167E-02 -4.277857906873E-01  2.105437073006E-01
H28  9.619145680167E-02  4.277857906873E-01 -2.105437073006E-01
H29  1.501776215735E-02 -2.685331460863E-01  4.075042103414E-01
H30 -1.501776215735E-02  2.685331460863E-01 -4.075042103414E-01
C31 -4.537927616604E-01 -4.256016073312E-01  3.793566506345E-01
C32  4.537927616604E-01  4.256016073312E-01 -3.793566506345E-01
C33  4.868125221672E-01 -3.100289607871E-01  2.942108053293E-01
C34 -4.868125221672E-01  3.100289607871E-01 -2.942108053293E-01
C35 -4.976084761731E-01 -4.070542743317E-01  1.925715069210E-01
C36  4.976084761731E-01  4.070542743317E-01 -1.925715069210E-01
C37  4.436965686149E-01 -2.924036720965E-01  1.047402501548E-01
C38 -4.436965686149E-01  2.924036720965E-01 -1.047402501548E-01
C39  4.606633128572E-01 -3.884069985090E-01  5.345530017790E-03
C40 -4.606633128572E-01  3.884069985090E-01 -5.345530017790E-03
C41  4.020664157238E-01 -2.733113358580E-01 -8.409456041801E-02
C42 -4.020664157238E-01  2.733113358580E-01  8.409456041801E-02
C43 -4.194498039483E-01  3.694847925977E-01  1.818456430982E-01
C44  4.194498039483E-01 -3.694847925977E-01 -1.818456430982E-01
C45 -3.590010592808E-01  2.544924685858E-01  2.735745108325E-01
C46  3.590010592808E-01 -2.544924685858E-01 -2.735745108325E-01
C47 -3.760616358614E-01  3.536144377398E-01  3.688636358946E-01
C48  3.760616358614E-01 -3.536144377398E-01 -3.688636358946E-01
H49 -4.648802460660E-01 -3.479339110368E-01  4.573139261696E-01
H50  4.648802460660E-01  3.479339110368E-01 -4.573139261696E-01
H51  4.260003225850E-01 -1.406443693596E-01  3.023449550703E-01
H52 -4.260003225850E-01  1.406443693596E-01 -3.023449550703E-01
H53  3.823026916736E-01 -1.230785129110E-01  1.126795225171E-01
H54 -3.823026916736E-01  1.230785129110E-01 -1.126795225171E-01
H55  3.401912976852E-01 -1.041937921285E-01 -7.621510037511E-02
H56 -3.401912976852E-01  1.041937921285E-01  7.621510037511E-02
H57 -2.974670067390E-01  8.519430409198E-02  2.658244951501E-01
H58  2.974670067390E-01 -8.519430409198E-02 -2.658244951501E-01
H59 -3.292450702449E-01  2.642768770032E-01  4.389620453537E-01
H60  3.292450702449E-01 -2.642768770032E-01 -4.389620453537E-01


#===END

data_OPT_STEP_15

_symmetry_space_group_name_H-M 'P 1'
_cell_length_a      7.85545218
_cell_length_b      6.09645860
_cell_length_c     13.60358628
_cell_angle_alpha  100.574664
_cell_angle_beta  112.605552
_cell_angle_gamma   86.243051

loop_
_atom_site_label
_atom_site_fract_x
_atom_site_fract_y
_atom_site_fract_z
C1  1.197514495373E-01  4.133473924989E-02  3.898887215604E-01
C2 -1.197514495373E-01 -4.133473924989E-02 -3.898887215604E-01
C3  1.432832205756E-01  1.635801956140E-01  3.201429730211E-01
C4 -1.432832205756E-01 -1.635801956140E-01 -3.201429730211E-01
C5  8.216656005297E-02  7.658451927171E-02  2.054517847460E-01
C6 -8.216656005297E-02 -7.658451927171E-02 -2.054517847460E-01
C7  1.066612227406E-01  1.961872093184E-01  1.328550190714E-01
C8 -1.066612227406E-01 -1.961872093184E-01 -1.328550190714E-01
C9  4.481082462078E-02  1.093690247107E-01  2.023596144586E-02
C10 -4.481082462078E-02 -1.093690247107E-01 -2.023596144586E-02
C11  6.868310282829E-02  2.293301755629E-01 -5.401662965293E-02
C12 -6.868310282829E-02 -2.293301755629E-01  5.401662965293E-02
C13 -7.218121133854E-03 -1.421119405670E-01  1.649957830361E-01
C14  7.218121133854E-03  1.421119405670E-01 -1.649957830361E-01
C15 -2.989103779054E-02 -2.638029199629E-01  2.411060574869E-01
C16  2.989103779054E-02  2.638029199629E-01 -2.411060574869E-01
C17  3.192704363733E-02 -1.757075761775E-01  3.497596675255E-01
C18 -3.192704363733E-02  1.757075761775E-01 -3.497596675255E-01
H19  1.678763767880E-01  1.097045905144E-01  4.778176955317E-01
H20 -1.678763767880E-01 -1.097045905144E-01 -4.778176955317E-01
H21  2.087953237695E-01  3.318965418285E-01  3.501453277377E-01
H22 -2.087953237695E-01 -3.318965418285E-01 -3.501453277377E-01
H23  1.745156418275E-01  3.631234314093E-01  1.636055941223E-01
H24 -1.745156418275E-01 -3.631234314093E-01 -1.636055941223E-01
H25  1.363934391880E-01  3.963803263619E-01 -2.323747716119E-02
H26 -1.363934391880E-01 -3.963803263619E-01  2.323747716119E-02
H27 -9.721308013577E-02 -4.305563401074E-01  2.101379385114E-01
H28  9.721308013577E-02  4.305563401074E-01 -2.101379385114E-01
H29  1.268236713814E-02 -2.713935893294E-01  4.069810429709E-01
H30 -1.268236713814E-02  2.713935893294E-01 -4.069810429709E-01
C31 -4.528711730144E-01 -4.252978892364E-01  3.796364228259E-01
C32  4.528711730144E-01  4.252978892364E-01 -3.796364228259E-01
C33  4.869979629497E-01 -3.102308011783E-01  2.942361400603E-01
C34 -4.869979629497E-01  3.102308011783E-01 -2.942361400603E-01
C35 -4.976306031379E-01 -4.072358780825E-01  1.926075600098E-01
C36  4.976306031379E-01  4.072358780825E-01 -1.926075600098E-01
C37  4.434266714722E-01 -2.928904545139E-01  1.045817247517E-01
C38 -4.434266714722E-01  2.928904545139E-01 -1.045817247517E-01
C39  4.606457950797E-01 -3.885541424312E-01  5.250522530058E-03
C40 -4.606457950797E-01  3.885541424312E-01 -5.250522530058E-03
C41  4.022092000554E-01 -2.735807703624E-01 -8.425782659193E-02
C42 -4.022092000554E-01  2.735807703624E-01  8.425782659193E-02
C43 -4.197206796365E-01  3.695160136766E-01  1.819533638901E-01
C44  4.197206796365E-01 -3.695160136766E-01 -1.819533638901E-01
C45 -3.587780309358E-01  2.550388482650E-01  2.738854289822E-01
C46  3.587780309358E-01 -2.550388482650E-01 -2.738854289822E-01
C47 -3.749561911464E-01  3.542674281051E-01  3.693647563089E-01
C48  3.749561911464E-01 -3.542674281051E-01 -3.693647563089E-01
H49 -4.642708362711E-01 -3.478461728073E-01  4.574564944936E-01
H50  4.642708362711E-01  3.478461728073E-01 -4.574564944936E-01
H51  4.268581064328E-01 -1.407856835917E-01  3.024358160980E-01
H52 -4.268581064328E-01  1.407856835917E-01 -3.024358160980E-01
H53  3.826959716278E-01 -1.234831433717E-01  1.125570093884E-01
H54 -3.826959716278E-01  1.234831433717E-01 -1.125570093884E-01
H55  3.416194091168E-01 -1.041163359205E-01 -7.618431923104E-02
H56 -3.416194091168E-01  1.041163359205E-01  7.618431923104E-02
H57 -2.973323444045E-01  8.602787633681E-02  2.661570013731E-01
H58  2.973323444045E-01 -8.602787633681E-02 -2.661570013731E-01
H59 -3.258597174250E-01  2.661311553971E-01  4.399873242344E-01
H60  3.258597174250E-01 -2.661311553971E-01 -4.399873242344E-01


#===END

data_OPT_STEP_16

_symmetry_space_group_name_H-M 'P 1'
_cell_length_a      7.86383117
_cell_length_b      6.09661964
_cell_length_c     13.60252932
_cell_angle_alpha  100.586640
_cell_angle_beta  112.610266
_cell_angle_gamma   86.228493

loop_
_atom_site_label
_atom_site_fract_x
_atom_site_fract_y
_atom_site_fract_z
C1  1.200634454498E-01  4.170115693368E-02  3.900196690268E-01
C2 -1.200634454498E-01 -4.170115693368E-02 -3.900196690268E-01
C3  1.434749240193E-01  1.638284072097E-01  3.202091194135E-01
C4 -1.434749240193E-01 -1.638284072097E-01 -3.202091194135E-01
C5  8.214172505492E-02  7.685184035238E-02  2.054905572585E-01
C6 -8.214172505492E-02 -7.685184035238E-02 -2.054905572585E-01
C7  1.065020334254E-01  1.963968271082E-01  1.328403664821E-01
C8 -1.065020334254E-01 -1.963968271082E-01 -1.328403664821E-01
C9  4.472638269600E-02  1.093916981131E-01  2.020634749136E-02
C10 -4.472638269600E-02 -1.093916981131E-01 -2.020634749136E-02
C11  6.859206814833E-02  2.291823443373E-01 -5.409392825731E-02
C12 -6.859206814833E-02 -2.291823443373E-01  5.409392825731E-02
C13 -7.008952555718E-03 -1.419236288313E-01  1.650944301788E-01
C14  7.008952555718E-03  1.419236288313E-01 -1.650944301788E-01
C15 -2.955075758174E-02 -2.635140426753E-01  2.412699951656E-01
C16  2.955075758174E-02  2.635140426753E-01 -2.412699951656E-01
C17  3.241582253583E-02 -1.753801575289E-01  3.499500973247E-01
C18 -3.241582253583E-02  1.753801575289E-01 -3.499500973247E-01
H19  1.683857724559E-01  1.100361803616E-01  4.779735281652E-01
H20 -1.683857724559E-01 -1.100361803616E-01 -4.779735281652E-01
H21  2.090425263716E-01  3.320700616221E-01  3.501613978117E-01
H22 -2.090425263716E-01 -3.320700616221E-01 -3.501613978117E-01
H23  1.745114776396E-01  3.632064685511E-01  1.635730894766E-01
H24 -1.745114776396E-01 -3.632064685511E-01 -1.635730894766E-01
H25  1.366440685220E-01  3.959893514116E-01 -2.331495569284E-02
H26 -1.366440685220E-01 -3.959893514116E-01  2.331495569284E-02
H27 -9.703188631951E-02 -4.301814912957E-01  2.103117896671E-01
H28  9.703188631951E-02  4.301814912957E-01 -2.103117896671E-01
H29  1.360967936707E-02 -2.712085282199E-01  4.072392163544E-01
H30 -1.360967936707E-02  2.712085282199E-01 -4.072392163544E-01
C31 -4.527783889076E-01 -4.253164721486E-01  3.797295992194E-01
C32  4.527783889076E-01  4.253164721486E-01 -3.797295992194E-01
C33  4.873018833483E-01 -3.101152915018E-01  2.943701492311E-01
C34 -4.873018833483E-01  3.101152915018E-01 -2.943701492311E-01
C35 -4.977422087120E-01 -4.072987396669E-01  1.926245630516E-01
C36  4.977422087120E-01  4.072987396669E-01 -1.926245630516E-01
C37  4.433273578622E-01 -2.929828619670E-01  1.045881589543E-01
C38 -4.433273578622E-01  2.929828619670E-01 -1.045881589543E-01
C39  4.606947703387E-01 -3.885622133267E-01  5.271567115365E-03
C40 -4.606947703387E-01  3.885622133267E-01 -5.271567115365E-03
C41  4.023520190302E-01 -2.735572846242E-01 -8.422535227040E-02
C42 -4.023520190302E-01  2.735572846242E-01  8.422535227040E-02
C43 -4.194611268424E-01  3.697015796006E-01  1.820380110713E-01
C44  4.194611268424E-01 -3.697015796006E-01 -1.820380110713E-01
C45 -3.580201381723E-01  2.555087198832E-01  2.740855172352E-01
C46  3.580201381723E-01 -2.555087198832E-01 -2.740855172352E-01
C47 -3.745828909765E-01  3.544515605758E-01  3.694842068251E-01
C48  3.745828909765E-01 -3.544515605758E-01 -3.694842068251E-01
H49 -4.642788116928E-01 -3.479389810044E-01  4.575506045838E-01
H50  4.642788116928E-01  3.479389810044E-01 -4.575506045838E-01
H51  4.277728388853E-01 -1.403655333414E-01  3.027195540871E-01
H52 -4.277728388853E-01  1.403655333414E-01 -3.027195540871E-01
H53  3.826376985222E-01 -1.235725562454E-01  1.125834857402E-01
H54 -3.826376985222E-01  1.235725562454E-01 -1.125834857402E-01
H55  3.421165267223E-01 -1.039257420793E-01 -7.606639652677E-02
H56 -3.421165267223E-01  1.039257420793E-01  7.606639652677E-02
H57 -2.965140939714E-01  8.662805358935E-02  2.663363287364E-01
H58  2.965140939714E-01 -8.662805358935E-02 -2.663363287364E-01
H59 -3.258779228205E-01  2.660470031820E-01  4.399954496627E-01
H60  3.258779228205E-01 -2.660470031820E-01 -4.399954496627E-01


#===END

data_OPT_STEP_17

_symmetry_space_group_name_H-M 'P 1'
_cell_length_a      7.87989373
_cell_length_b      6.09517122
_cell_length_c     13.59993805
_cell_angle_alpha  100.594655
_cell_angle_beta  112.632808
_cell_angle_gamma   86.324606

loop_
_atom_site_label
_atom_site_fract_x
_atom_site_fract_y
_atom_site_fract_z
C1  1.203762475108E-01  4.136648483346E-02  3.901992496482E-01
C2 -1.203762475108E-01 -4.136648483346E-02 -3.901992496482E-01
C3  1.434405915645E-01  1.638334403313E-01  3.203793519865E-01
C4 -1.434405915645E-01 -1.638334403313E-01 -3.203793519865E-01
C5  8.236537311783E-02  7.667493398610E-02  2.056176973443E-01
C6 -8.236537311783E-02 -7.667493398610E-02 -2.056176973443E-01
C7  1.066683587182E-01  1.964720286818E-01  1.329923366878E-01
C8 -1.066683587182E-01 -1.964720286818E-01 -1.329923366878E-01
C9  4.490378181211E-02  1.093653263499E-01  2.027483590724E-02
C10 -4.490378181211E-02 -1.093653263499E-01 -2.027483590724E-02
C11  6.813051802793E-02  2.297353913629E-01 -5.406673282476E-02
C12 -6.813051802793E-02 -2.297353913629E-01  5.406673282476E-02
C13 -6.265496128487E-03 -1.426136825165E-01  1.651625656619E-01
C14  6.265496128487E-03  1.426136825165E-01 -1.651625656619E-01
C15 -2.937959602601E-02 -2.639719228079E-01  2.412391381921E-01
C16  2.937959602601E-02  2.639719228079E-01 -2.412391381921E-01
C17  3.248888110263E-02 -1.757247479734E-01  3.499792396967E-01
C18 -3.248888110263E-02  1.757247479734E-01 -3.499792396967E-01
H19  1.688008537789E-01  1.096397246865E-01  4.782560954655E-01
H20 -1.688008537789E-01 -1.096397246865E-01 -4.782560954655E-01
H21  2.089146113945E-01  3.323240044736E-01  3.503686291543E-01
H22 -2.089146113945E-01 -3.323240044736E-01 -3.503686291543E-01
H23  1.750317676447E-01  3.632715130929E-01  1.638422963614E-01
H24 -1.750317676447E-01 -3.632715130929E-01 -1.638422963614E-01
H25  1.371713052924E-01  3.961311651724E-01 -2.310353164677E-02
H26 -1.371713052924E-01 -3.961311651724E-01  2.310353164677E-02
H27 -9.722745944347E-02 -4.306801813973E-01  2.102014333186E-01
H28  9.722745944347E-02  4.306801813973E-01 -2.102014333186E-01
H29  1.426063499289E-02 -2.720593979941E-01  4.072978107247E-01
H30 -1.426063499289E-02  2.720593979941E-01 -4.072978107247E-01
C31 -4.530941363976E-01 -4.256234094860E-01  3.797994845222E-01
C32  4.530941363976E-01  4.256234094860E-01 -3.797994845222E-01
C33  4.868428338515E-01 -3.106064910509E-01  2.943801309212E-01
C34 -4.868428338515E-01  3.106064910509E-01 -2.943801309212E-01
C35 -4.980715621510E-01 -4.074928064409E-01  1.926187900592E-01
C36  4.980715621510E-01  4.074928064409E-01 -1.926187900592E-01
C37  4.442781880108E-01 -2.925963497759E-01  1.048365033573E-01
C38 -4.442781880108E-01  2.925963497759E-01 -1.048365033573E-01
C39  4.606530369765E-01 -3.887365420047E-01  5.253243656694E-03
C40 -4.606530369765E-01  3.887365420047E-01 -5.253243656694E-03
C41  4.019191813817E-01 -2.740936603478E-01 -8.438123271581E-02
C42 -4.019191813817E-01  2.740936603478E-01  8.438123271581E-02
C43 -4.189446548469E-01  3.702055910415E-01  1.822372969911E-01
C44  4.189446548469E-01 -3.702055910415E-01 -1.822372969911E-01
C45 -3.580130864603E-01  2.557636803792E-01  2.741989593393E-01
C46  3.580130864603E-01 -2.557636803792E-01 -2.741989593393E-01
C47 -3.744829143726E-01  3.546531725435E-01  3.696309871657E-01
C48  3.744829143726E-01 -3.546531725435E-01 -3.696309871657E-01
H49 -4.643791385801E-01 -3.482664163177E-01  4.577187991408E-01
H50  4.643791385801E-01  3.482664163177E-01 -4.577187991408E-01
H51  4.263043093621E-01 -1.414930245808E-01  3.025134914552E-01
H52 -4.263043093621E-01  1.414930245808E-01 -3.025134914552E-01
H53  3.848435644332E-01 -1.226734330857E-01  1.131086150943E-01
H54 -3.848435644332E-01  1.226734330857E-01 -1.131086150943E-01
H55  3.406399809981E-01 -1.051014465044E-01 -7.649271489420E-02
H56 -3.406399809981E-01  1.051014465044E-01  7.649271489420E-02
H57 -2.966361264075E-01  8.716862347546E-02  2.663967332475E-01
H58  2.966361264075E-01 -8.716862347546E-02 -2.663967332475E-01
H59 -3.270054365923E-01  2.655824416401E-01  4.398777583105E-01
H60  3.270054365923E-01 -2.655824416401E-01 -4.398777583105E-01


#===END

data_OPT_STEP_18

_symmetry_space_group_name_H-M 'P 1'
_cell_length_a      7.88479072
_cell_length_b      6.09344632
_cell_length_c     13.59952212
_cell_angle_alpha  100.601952
_cell_angle_beta  112.632983
_cell_angle_gamma   86.316842

loop_
_atom_site_label
_atom_site_fract_x
_atom_site_fract_y
_atom_site_fract_z
C1  1.202939678750E-01  4.168619634964E-02  3.902276604222E-01
C2 -1.202939678750E-01 -4.168619634964E-02 -3.902276604222E-01
C3  1.434290855114E-01  1.640539240354E-01  3.203945621980E-01
C4 -1.434290855114E-01 -1.640539240354E-01 -3.203945621980E-01
C5  8.234161468047E-02  7.682806289899E-02  2.056287626225E-01
C6 -8.234161468047E-02 -7.682806289899E-02 -2.056287626225E-01
C7  1.066325608770E-01  1.965825922303E-01  1.329831532695E-01
C8 -1.066325608770E-01 -1.965825922303E-01 -1.329831532695E-01
C9  4.490035751507E-02  1.093784746076E-01  2.026590131399E-02
C10 -4.490035751507E-02 -1.093784746076E-01 -2.026590131399E-02
C11  6.813783211498E-02  2.296940834665E-01 -5.409322350291E-02
C12 -6.813783211498E-02 -2.296940834665E-01  5.409322350291E-02
C13 -6.287286212868E-03 -1.424914915418E-01  1.651910568444E-01
C14  6.287286212868E-03  1.424914915418E-01 -1.651910568444E-01
C15 -2.941150323982E-02 -2.637822278266E-01  2.412865238744E-01
C16  2.941150323982E-02  2.637822278266E-01 -2.412865238744E-01
C17  3.243841112311E-02 -1.754476574457E-01  3.500274234673E-01
C18 -3.243841112311E-02  1.754476574457E-01 -3.500274234673E-01
H19  1.686129082654E-01  1.100822553620E-01  4.782786285334E-01
H20 -1.686129082654E-01 -1.100822553620E-01 -4.782786285334E-01
H21  2.089924814950E-01  3.325157698235E-01  3.503773136275E-01
H22 -2.089924814950E-01 -3.325157698235E-01 -3.503773136275E-01
H23  1.749434545097E-01  3.634341655252E-01  1.638150652190E-01
H24 -1.749434545097E-01 -3.634341655252E-01 -1.638150652190E-01
H25  1.371532447263E-01  3.961269782601E-01 -2.314551398876E-02
H26 -1.371532447263E-01 -3.961269782601E-01  2.314551398876E-02
H27 -9.721896272070E-02 -4.305437334265E-01  2.102680120676E-01
H28  9.721896272070E-02  4.305437334265E-01 -2.102680120676E-01
H29  1.418083515742E-02 -2.717294903346E-01  4.073615318728E-01
H30 -1.418083515742E-02  2.717294903346E-01 -4.073615318728E-01
C31 -4.530785643820E-01 -4.256481007377E-01  3.798189567225E-01
C32  4.530785643820E-01  4.256481007377E-01 -3.798189567225E-01
C33  4.869171042191E-01 -3.105648910774E-01  2.944133538300E-01
C34 -4.869171042191E-01  3.105648910774E-01 -2.944133538300E-01
C35 -4.980888175546E-01 -4.075119890310E-01  1.926228400811E-01
C36  4.980888175546E-01  4.075119890310E-01 -1.926228400811E-01
C37  4.441204276964E-01 -2.926560943451E-01  1.048121179237E-01
C38 -4.441204276964E-01  2.926560943451E-01 -1.048121179237E-01
C39  4.605838679424E-01 -3.887452622701E-01  5.245169229398E-03
C40 -4.605838679424E-01  3.887452622701E-01 -5.245169229398E-03
C41  4.018930818485E-01 -2.740405801607E-01 -8.437851290957E-02
C42 -4.018930818485E-01  2.740405801607E-01  8.437851290957E-02
C43 -4.189276107814E-01  3.701541864604E-01  1.822390136625E-01
C44  4.189276107814E-01 -3.701541864604E-01 -1.822390136625E-01
C45 -3.580138411406E-01  2.556635661877E-01  2.741955619601E-01
C46  3.580138411406E-01 -2.556635661877E-01 -2.741955619601E-01
C47 -3.744589468480E-01  3.545798446055E-01  3.696412735991E-01
C48  3.744589468480E-01 -3.545798446055E-01 -3.696412735991E-01
H49 -4.643357144080E-01 -3.482670576091E-01  4.577520557756E-01
H50  4.643357144080E-01  3.482670576091E-01 -4.577520557756E-01
H51  4.264154868418E-01 -1.413922524376E-01  3.025614375046E-01
H52 -4.264154868418E-01  1.413922524376E-01 -3.025614375046E-01
H53  3.845261431529E-01 -1.227764724974E-01  1.130560240625E-01
H54 -3.845261431529E-01  1.227764724974E-01 -1.130560240625E-01
H55  3.406165049053E-01 -1.050080358925E-01 -7.648164542265E-02
H56 -3.406165049053E-01  1.050080358925E-01  7.648164542265E-02
H57 -2.965285766623E-01  8.708320358825E-02  2.664118785445E-01
H58  2.965285766623E-01 -8.708320358825E-02 -2.664118785445E-01
H59 -3.269774727982E-01  2.654792449964E-01  4.398891761155E-01
H60  3.269774727982E-01 -2.654792449964E-01 -4.398891761155E-01


#===END

data_OPT_STEP_19

_symmetry_space_group_name_H-M 'P 1'
_cell_length_a      7.88211753
_cell_length_b      6.08976044
_cell_length_c     13.59791951
_cell_angle_alpha  100.560640
_cell_angle_beta  112.670824
_cell_angle_gamma   86.269163

loop_
_atom_site_label
_atom_site_fract_x
_atom_site_fract_y
_atom_site_fract_z
C1  1.206105553109E-01  4.141904985465E-02  3.903169868081E-01
C2 -1.206105553109E-01 -4.141904985465E-02 -3.903169868081E-01
C3  1.435927499925E-01  1.639116034206E-01  3.204272630105E-01
C4 -1.435927499925E-01 -1.639116034206E-01 -3.204272630105E-01
C5  8.242810462352E-02  7.674686790892E-02  2.056536793362E-01
C6 -8.242810462352E-02 -7.674686790892E-02 -2.056536793362E-01
C7  1.067730067770E-01  1.964884812514E-01  1.329720122617E-01
C8 -1.067730067770E-01 -1.964884812514E-01 -1.329720122617E-01
C9  4.500091325109E-02  1.093211393793E-01  2.025320426978E-02
C10 -4.500091325109E-02 -1.093211393793E-01 -2.025320426978E-02
C11  6.840241867726E-02  2.295656880603E-01 -5.413065106460E-02
C12 -6.840241867726E-02 -2.295656880603E-01  5.413065106460E-02
C13 -6.353804706648E-03 -1.425030257751E-01  1.652454936478E-01
C14  6.353804706648E-03  1.425030257751E-01 -1.652454936478E-01
C15 -2.937554232886E-02 -2.638729790877E-01  2.413958680613E-01
C16  2.937554232886E-02  2.638729790877E-01 -2.413958680613E-01
C17  3.274238448664E-02 -1.757235775364E-01  3.501580818663E-01
C18 -3.274238448664E-02  1.757235775364E-01 -3.501580818663E-01
H19  1.690135924103E-01  1.097517273874E-01  4.783775328463E-01
H20 -1.690135924103E-01 -1.097517273874E-01 -4.783775328463E-01
H21  2.090356842779E-01  3.324644519237E-01  3.503617674143E-01
H22 -2.090356842779E-01 -3.324644519237E-01 -3.503617674143E-01
H23  1.751361422973E-01  3.633229504135E-01  1.637739284172E-01
H24 -1.751361422973E-01 -3.633229504135E-01 -1.637739284172E-01
H25  1.376332483869E-01  3.958894757654E-01 -2.319832166709E-02
H26 -1.376332483869E-01 -3.958894757654E-01  2.319832166709E-02
H27 -9.724052927500E-02 -4.306198274913E-01  2.104028323399E-01
H28  9.724052927500E-02  4.306198274913E-01 -2.104028323399E-01
H29  1.457459299936E-02 -2.720897327743E-01  4.075338329979E-01
H30 -1.457459299936E-02  2.720897327743E-01 -4.075338329979E-01
C31 -4.531152150687E-01 -4.256060793426E-01  3.798366886287E-01
C32  4.531152150687E-01  4.256060793426E-01 -3.798366886287E-01
C33  4.869512174835E-01 -3.103438610040E-01  2.943794631849E-01
C34 -4.869512174835E-01  3.103438610040E-01 -2.943794631849E-01
C35 -4.981585482805E-01 -4.074622371835E-01  1.925929337839E-01
C36  4.981585482805E-01  4.074622371835E-01 -1.925929337839E-01
C37  4.440130841734E-01 -2.924969884442E-01  1.047122432594E-01
C38 -4.440130841734E-01  2.924969884442E-01 -1.047122432594E-01
C39  4.606680560504E-01 -3.885935337525E-01  5.219607681428E-03
C40 -4.606680560504E-01  3.885935337525E-01 -5.219607681428E-03
C41  4.022453902742E-01 -2.735858340904E-01 -8.440434020525E-02
C42 -4.022453902742E-01  2.735858340904E-01  8.440434020525E-02
C43 -4.191068267727E-01  3.699033095020E-01  1.822802973621E-01
C44  4.191068267727E-01 -3.699033095020E-01 -1.822802973621E-01
C45 -3.580482556385E-01  2.553651434910E-01  2.743305038834E-01
C46  3.580482556385E-01 -2.553651434910E-01 -2.743305038834E-01
C47 -3.744718477956E-01  3.544079667289E-01  3.697628372923E-01
C48  3.744718477956E-01 -3.544079667289E-01 -3.697628372923E-01
H49 -4.644846911449E-01 -3.482149445437E-01  4.577252458991E-01
H50  4.644846911449E-01  3.482149445437E-01 -4.577252458991E-01
H51  4.264781591015E-01 -1.409809653894E-01  3.024602833086E-01
H52 -4.264781591015E-01  1.409809653894E-01 -3.024602833086E-01
H53  3.842813601345E-01 -1.225112797970E-01  1.128515867944E-01
H54 -3.842813601345E-01  1.225112797970E-01 -1.128515867944E-01
H55  3.411968368699E-01 -1.042618356407E-01 -7.652513393681E-02
H56 -3.411968368699E-01  1.042618356407E-01  7.652513393681E-02
H57 -2.963437493341E-01  8.671512477116E-02  2.666748112199E-01
H58  2.963437493341E-01 -8.671512477116E-02 -2.666748112199E-01
H59 -3.270345820314E-01  2.651954476663E-01  4.400553153301E-01
H60  3.270345820314E-01 -2.651954476663E-01 -4.400553153301E-01


#===END

data_OPT_STEP_20

_symmetry_space_group_name_H-M 'P 1'
_cell_length_a      7.89061766
_cell_length_b      6.08997689
_cell_length_c     13.59479456
_cell_angle_alpha  100.582429
_cell_angle_beta  112.663001
_cell_angle_gamma   86.278784

loop_
_atom_site_label
_atom_site_fract_x
_atom_site_fract_y
_atom_site_fract_z
C1  1.209899563237E-01  4.135215256045E-02  3.904404640120E-01
C2 -1.209899563237E-01 -4.135215256045E-02 -3.904404640120E-01
C3  1.439558102845E-01  1.638224115588E-01  3.205455370387E-01
C4 -1.439558102845E-01 -1.638224115588E-01 -3.205455370387E-01
C5  8.230174948584E-02  7.690796781415E-02  2.056917122887E-01
C6 -8.230174948584E-02 -7.690796781415E-02 -2.056917122887E-01
C7  1.065630143879E-01  1.966468350483E-01  1.329933282179E-01
C8 -1.065630143879E-01 -1.966468350483E-01 -1.329933282179E-01
C9  4.478969104871E-02  1.094503262534E-01  2.025043723179E-02
C10 -4.478969104871E-02 -1.094503262534E-01 -2.025043723179E-02
C11  6.850446514137E-02  2.294599100219E-01 -5.410540223068E-02
C12 -6.850446514137E-02 -2.294599100219E-01  5.410540223068E-02
C13 -6.620358428793E-03 -1.422434591875E-01  1.652405662663E-01
C14  6.620358428793E-03  1.422434591875E-01 -1.652405662663E-01
C15 -2.921709747771E-02 -2.638482143819E-01  2.414451822067E-01
C16  2.921709747771E-02  2.638482143819E-01 -2.414451822067E-01
C17  3.307627100796E-02 -1.757650522744E-01  3.502512833045E-01
C18 -3.307627100796E-02  1.757650522744E-01 -3.502512833045E-01
H19  1.695594312861E-01  1.096259585339E-01  4.785356616935E-01
H20 -1.695594312861E-01 -1.096259585339E-01 -4.785356616935E-01
H21  2.093354321936E-01  3.323995224034E-01  3.504820134069E-01
H22 -2.093354321936E-01 -3.323995224034E-01 -3.504820134069E-01
H23  1.752590642998E-01  3.632584941358E-01  1.638329260308E-01
H24 -1.752590642998E-01 -3.632584941358E-01 -1.638329260308E-01
H25  1.372542909277E-01  3.960360749209E-01 -2.320175290312E-02
H26 -1.372542909277E-01 -3.960360749209E-01  2.320175290312E-02
H27 -9.733804714328E-02 -4.304251702615E-01  2.103992526383E-01
H28  9.733804714328E-02  4.304251702615E-01 -2.103992526383E-01
H29  1.463143576936E-02 -2.719180104554E-01  4.076100303355E-01
H30 -1.463143576936E-02  2.719180104554E-01 -4.076100303355E-01
C31 -4.532205821209E-01 -4.256436046106E-01  3.798996918363E-01
C32  4.532205821209E-01  4.256436046106E-01 -3.798996918363E-01
C33  4.870138041296E-01 -3.103492625673E-01  2.944654530815E-01
C34 -4.870138041296E-01  3.103492625673E-01 -2.944654530815E-01
C35 -4.980324915828E-01 -4.074588956217E-01  1.926605967033E-01
C36  4.980324915828E-01  4.074588956217E-01 -1.926605967033E-01
C37  4.435684504177E-01 -2.928379950006E-01  1.046427608971E-01
C38 -4.435684504177E-01  2.928379950006E-01 -1.046427608971E-01
C39  4.607407879688E-01 -3.885824188647E-01  5.254588152062E-03
C40 -4.607407879688E-01  3.885824188647E-01 -5.254588152062E-03
C41  4.022845413906E-01 -2.735867373019E-01 -8.437470156249E-02
C42 -4.022845413906E-01  2.735867373019E-01  8.437470156249E-02
C43 -4.191002527193E-01  3.698878774956E-01  1.822906365052E-01
C44  4.191002527193E-01 -3.698878774956E-01 -1.822906365052E-01
C45 -3.576729274322E-01  2.555974169125E-01  2.744380472502E-01
C46  3.576729274322E-01 -2.555974169125E-01 -2.744380472502E-01
C47 -3.745849328021E-01  3.544095271979E-01  3.697943540525E-01
C48  3.745849328021E-01 -3.544095271979E-01 -3.697943540525E-01
H49 -4.646362277639E-01 -3.482974403691E-01  4.578041412476E-01
H50  4.646362277639E-01  3.482974403691E-01 -4.578041412476E-01
H51  4.269986667434E-01 -1.408139323323E-01  3.026620521998E-01
H52 -4.269986667434E-01  1.408139323323E-01 -3.026620521998E-01
H53  3.830456332615E-01 -1.233214360849E-01  1.126166657699E-01
H54 -3.830456332615E-01  1.233214360849E-01 -1.126166657699E-01
H55  3.412780084475E-01 -1.043054386066E-01 -7.645578865750E-02
H56 -3.412780084475E-01  1.043054386066E-01  7.645578865750E-02
H57 -2.957906126972E-01  8.700520286979E-02  2.668261308406E-01
H58  2.957906126972E-01 -8.700520286979E-02 -2.668261308406E-01
H59 -3.270317046817E-01  2.652987999952E-01  4.401252436570E-01
H60  3.270317046817E-01 -2.652987999952E-01 -4.401252436570E-01


#===END

data_OPT_STEP_21

_symmetry_space_group_name_H-M 'P 1'
_cell_length_a      7.89538348
_cell_length_b      6.08549351
_cell_length_c     13.59287647
_cell_angle_alpha  100.623642
_cell_angle_beta  112.662567
_cell_angle_gamma   86.207805

loop_
_atom_site_label
_atom_site_fract_x
_atom_site_fract_y
_atom_site_fract_z
C1  1.206178988392E-01  4.191285510214E-02  3.904908399780E-01
C2 -1.206178988392E-01 -4.191285510214E-02 -3.904908399780E-01
C3  1.439639597884E-01  1.640852988233E-01  3.206251881520E-01
C4 -1.439639597884E-01 -1.640852988233E-01 -3.206251881520E-01
C5  8.238298424600E-02  7.703824396813E-02  2.057470826114E-01
C6 -8.238298424600E-02 -7.703824396813E-02 -2.057470826114E-01
C7  1.067786558290E-01  1.966410386249E-01  1.330518348938E-01
C8 -1.067786558290E-01 -1.966410386249E-01 -1.330518348938E-01
C9  4.507076620781E-02  1.092926308534E-01  2.028718252665E-02
C10 -4.507076620781E-02 -1.092926308534E-01 -2.028718252665E-02
C11  6.886484892795E-02  2.291998545413E-01 -5.407162195864E-02
C12 -6.886484892795E-02 -2.291998545413E-01  5.407162195864E-02
C13 -6.926114396066E-03 -1.419402333467E-01  1.652382341758E-01
C14  6.926114396066E-03  1.419402333467E-01 -1.652382341758E-01
C15 -2.958949851411E-02 -2.634388317311E-01  2.414497874319E-01
C16  2.958949851411E-02  2.634388317311E-01 -2.414497874319E-01
C17  3.268169999386E-02 -1.752345031578E-01  3.502823776301E-01
C18 -3.268169999386E-02  1.752345031578E-01 -3.502823776301E-01
H19  1.691543210777E-01  1.102630953623E-01  4.786022165383E-01
H20 -1.691543210777E-01 -1.102630953623E-01 -4.786022165383E-01
H21  2.094968865508E-01  3.326111967155E-01  3.505717737800E-01
H22 -2.094968865508E-01 -3.326111967155E-01 -3.505717737800E-01
H23  1.755464516331E-01  3.632520411990E-01  1.638975316493E-01
H24 -1.755464516331E-01 -3.632520411990E-01 -1.638975316493E-01
H25  1.376127398611E-01  3.958101329696E-01 -2.315445652615E-02
H26 -1.376127398611E-01 -3.958101329696E-01  2.315445652615E-02
H27 -9.776253181566E-02 -4.300413773832E-01  2.103960593901E-01
H28  9.776253181566E-02  4.300413773832E-01 -2.103960593901E-01
H29  1.428400065244E-02 -2.713821335244E-01  4.076546203114E-01
H30 -1.428400065244E-02  2.713821335244E-01 -4.076546203114E-01
C31 -4.531641864320E-01 -4.256220073518E-01  3.799929270400E-01
C32  4.531641864320E-01  4.256220073518E-01 -3.799929270400E-01
C33  4.871185854262E-01 -3.101322557515E-01  2.945953897415E-01
C34 -4.871185854262E-01  3.101322557515E-01 -2.945953897415E-01
C35 -4.979335123401E-01 -4.073580292514E-01  1.927390086672E-01
C36  4.979335123401E-01  4.073580292514E-01 -1.927390086672E-01
C37  4.434149160832E-01 -2.927040912745E-01  1.046922292138E-01
C38 -4.434149160832E-01  2.927040912745E-01 -1.046922292138E-01
C39  4.605891315566E-01 -3.885246601820E-01  5.259813760315E-03
C40 -4.605891315566E-01  3.885246601820E-01 -5.259813760315E-03
C41  4.020908033880E-01 -2.733768906631E-01 -8.435282591087E-02
C42 -4.020908033880E-01  2.733768906631E-01  8.435282591087E-02
C43 -4.189504624993E-01  3.697462343756E-01  1.823033787087E-01
C44  4.189504624993E-01 -3.697462343756E-01 -1.823033787087E-01
C45 -3.573805368038E-01  2.553909661520E-01  2.744621036045E-01
C46  3.573805368038E-01 -2.553909661520E-01 -2.744621036045E-01
C47 -3.744167898911E-01  3.542317345076E-01  3.698296274625E-01
C48  3.744167898911E-01 -3.542317345076E-01 -3.698296274625E-01
H49 -4.646991619235E-01 -3.482567692751E-01  4.579135134296E-01
H50  4.646991619235E-01  3.482567692751E-01 -4.579135134296E-01
H51  4.272026380181E-01 -1.403575649591E-01  3.028666374161E-01
H52 -4.272026380181E-01  1.403575649591E-01 -3.028666374161E-01
H53  3.827565695395E-01 -1.230642857606E-01  1.126922138030E-01
H54 -3.827565695395E-01  1.230642857606E-01 -1.126922138030E-01
H55  3.413659271947E-01 -1.037646498523E-01 -7.631787250325E-02
H56 -3.413659271947E-01  1.037646498523E-01  7.631787250325E-02
H57 -2.955962846400E-01  8.654230734857E-02  2.667826855021E-01
H58  2.955962846400E-01 -8.654230734857E-02 -2.667826855021E-01
H59 -3.266289233575E-01  2.651348875623E-01  4.401948477732E-01
H60  3.266289233575E-01 -2.651348875623E-01 -4.401948477732E-01


#===END

data_OPT_STEP_22

_symmetry_space_group_name_H-M 'P 1'
_cell_length_a      7.90448132
_cell_length_b      6.08055550
_cell_length_c     13.58979390
_cell_angle_alpha  100.636937
_cell_angle_beta  112.654955
_cell_angle_gamma   86.220164

loop_
_atom_site_label
_atom_site_fract_x
_atom_site_fract_y
_atom_site_fract_z
C1  1.206204400720E-01  4.200213838456E-02  3.906003302702E-01
C2 -1.206204400720E-01 -4.200213838456E-02 -3.906003302702E-01
C3  1.439526180841E-01  1.642575092440E-01  3.207237863180E-01
C4 -1.439526180841E-01 -1.642575092440E-01 -3.207237863180E-01
C5  8.243198197680E-02  7.709848836200E-02  2.058123463992E-01
C6 -8.243198197680E-02 -7.709848836200E-02 -2.058123463992E-01
C7  1.070219730830E-01  1.966629667553E-01  1.331294042988E-01
C8 -1.070219730830E-01 -1.966629667553E-01 -1.331294042988E-01
C9  4.513364811247E-02  1.093321898834E-01  2.030817908824E-02
C10 -4.513364811247E-02 -1.093321898834E-01 -2.030817908824E-02
C11  6.903258341910E-02  2.292400944172E-01 -5.405230140165E-02
C12 -6.903258341910E-02 -2.292400944172E-01  5.405230140165E-02
C13 -7.036976965638E-03 -1.419464127994E-01  1.652599264569E-01
C14  7.036976965638E-03  1.419464127994E-01 -1.652599264569E-01
C15 -2.985996300130E-02 -2.634286019546E-01  2.414664979097E-01
C16  2.985996300130E-02  2.634286019546E-01 -2.414664979097E-01
C17  3.253116221790E-02 -1.752094915612E-01  3.503484231880E-01
C18 -3.253116221790E-02  1.752094915612E-01 -3.503484231880E-01
H19  1.691850227354E-01  1.103872867222E-01  4.787413747409E-01
H20 -1.691850227354E-01 -1.103872867222E-01 -4.787413747409E-01
H21  2.096996948714E-01  3.327799921642E-01  3.507042553502E-01
H22 -2.096996948714E-01 -3.327799921642E-01 -3.507042553502E-01
H23  1.759476386396E-01  3.633139122670E-01  1.639982751598E-01
H24 -1.759476386396E-01 -3.633139122670E-01 -1.639982751598E-01
H25  1.380911913861E-01  3.957888824632E-01 -2.308623757288E-02
H26 -1.380911913861E-01 -3.957888824632E-01  2.308623757288E-02
H27 -9.816008825607E-02 -4.300835383130E-01  2.103918810680E-01
H28  9.816008825607E-02  4.300835383130E-01 -2.103918810680E-01
H29  1.412027864220E-02 -2.714057611330E-01  4.077288309906E-01
H30 -1.412027864220E-02  2.714057611330E-01 -4.077288309906E-01
C31 -4.530078339340E-01 -4.255543900694E-01  3.801344850424E-01
C32  4.530078339340E-01  4.255543900694E-01 -3.801344850424E-01
C33  4.872490820365E-01 -3.100149168260E-01  2.947214397129E-01
C34 -4.872490820365E-01  3.100149168260E-01 -2.947214397129E-01
C35 -4.978960367961E-01 -4.073285180411E-01  1.928063195116E-01
C36  4.978960367961E-01  4.073285180411E-01 -1.928063195116E-01
C37  4.432215525420E-01 -2.927372216237E-01  1.046976592496E-01
C38 -4.432215525420E-01  2.927372216237E-01 -1.046976592496E-01
C39  4.605424714204E-01 -3.884965311038E-01  5.264542121560E-03
C40 -4.605424714204E-01  3.884965311038E-01 -5.264542121560E-03
C41  4.020826520268E-01 -2.732550008935E-01 -8.435080029623E-02
C42 -4.020826520268E-01  2.732550008935E-01  8.435080029623E-02
C43 -4.189510674789E-01  3.696525208355E-01  1.823358960527E-01
C44  4.189510674789E-01 -3.696525208355E-01 -1.823358960527E-01
C45 -3.573762311324E-01  2.552445532750E-01  2.745094987208E-01
C46  3.573762311324E-01 -2.552445532750E-01 -2.745094987208E-01
C47 -3.742384581033E-01  3.542151242093E-01  3.699512940090E-01
C48  3.742384581033E-01 -3.542151242093E-01 -3.699512940090E-01
H49 -4.646580467529E-01 -3.482205955493E-01  4.580627166415E-01
H50  4.646580467529E-01  3.482205955493E-01 -4.580627166415E-01
H51  4.272250872651E-01 -1.402179008755E-01  3.029835688756E-01
H52 -4.272250872651E-01  1.402179008755E-01 -3.029835688756E-01
H53  3.822382162155E-01 -1.231896072445E-01  1.126423167691E-01
H54 -3.822382162155E-01  1.231896072445E-01 -1.126423167691E-01
H55  3.414166692558E-01 -1.035375976114E-01 -7.628607969807E-02
H56 -3.414166692558E-01  1.035375976114E-01  7.628607969807E-02
H57 -2.954320245391E-01  8.640354030836E-02  2.668555367362E-01
H58  2.954320245391E-01 -8.640354030836E-02 -2.668555367362E-01
H59 -3.262714411352E-01  2.651698914262E-01  4.403680231039E-01
H60  3.262714411352E-01 -2.651698914262E-01 -4.403680231039E-01


#===END

data_OPT_STEP_23

_symmetry_space_group_name_H-M 'P 1'
_cell_length_a      7.92193649
_cell_length_b      6.06931788
_cell_length_c     13.58524291
_cell_angle_alpha  100.630008
_cell_angle_beta  112.708886
_cell_angle_gamma   86.148888

loop_
_atom_site_label
_atom_site_fract_x
_atom_site_fract_y
_atom_site_fract_z
C1  1.206048377255E-01  4.262351141519E-02  3.908556350866E-01
C2 -1.206048377255E-01 -4.262351141519E-02 -3.908556350866E-01
C3  1.440199039618E-01  1.647755928110E-01  3.209023836523E-01
C4 -1.440199039618E-01 -1.647755928110E-01 -3.209023836523E-01
C5  8.220124873497E-02  7.759689357749E-02  2.059085798619E-01
C6 -8.220124873497E-02 -7.759689357749E-02 -2.059085798619E-01
C7  1.069582416889E-01  1.970169498993E-01  1.331655472580E-01
C8 -1.069582416889E-01 -1.970169498993E-01 -1.331655472580E-01
C9  4.501146796812E-02  1.094943840988E-01  2.028088179007E-02
C10 -4.501146796812E-02 -1.094943840988E-01 -2.028088179007E-02
C11  6.927351749393E-02  2.291244679887E-01 -5.412709857423E-02
C12 -6.927351749393E-02 -2.291244679887E-01  5.412709857423E-02
C13 -7.388921848383E-03 -1.415546459734E-01  1.653805476402E-01
C14  7.388921848383E-03  1.415546459734E-01 -1.653805476402E-01
C15 -3.031546950507E-02 -2.629233717869E-01  2.416606279537E-01
C16  3.031546950507E-02  2.629233717869E-01 -2.416606279537E-01
C17  3.223507288112E-02 -1.745849172240E-01  3.506130335056E-01
C18 -3.223507288112E-02  1.745849172240E-01 -3.506130335056E-01
H19  1.690439002761E-01  1.112459115009E-01  4.790206130164E-01
H20 -1.690439002761E-01 -1.112459115009E-01 -4.790206130164E-01
H21  2.100511836659E-01  3.332708605230E-01  3.508756491825E-01
H22 -2.100511836659E-01 -3.332708605230E-01 -3.508756491825E-01
H23  1.760720504470E-01  3.636937851025E-01  1.640108281983E-01
H24 -1.760720504470E-01 -3.636937851025E-01 -1.640108281983E-01
H25  1.382801376197E-01  3.958335733681E-01 -2.320314243790E-02
H26 -1.382801376197E-01 -3.958335733681E-01  2.320314243790E-02
H27 -9.879360798530E-02 -4.296261824221E-01  2.106074687153E-01
H28  9.879360798530E-02  4.296261824221E-01 -2.106074687153E-01
H29  1.341249422490E-02 -2.705044407644E-01  4.080334177439E-01
H30 -1.341249422490E-02  2.705044407644E-01 -4.080334177439E-01
C31 -4.530164363690E-01 -4.255181920123E-01  3.802950565792E-01
C32  4.530164363690E-01  4.255181920123E-01 -3.802950565792E-01
C33  4.870924835072E-01 -3.097934073854E-01  2.947695821347E-01
C34 -4.870924835072E-01  3.097934073854E-01 -2.947695821347E-01
C35 -4.979321266954E-01 -4.072189210262E-01  1.928641126138E-01
C36  4.979321266954E-01  4.072189210262E-01 -1.928641126138E-01
C37  4.432008692002E-01 -2.923633542145E-01  1.046835429120E-01
C38 -4.432008692002E-01  2.923633542145E-01 -1.046835429120E-01
C39  4.604877734894E-01 -3.883097476197E-01  5.222181208079E-03
C40 -4.604877734894E-01  3.883097476197E-01 -5.222181208079E-03
C41  4.019133351023E-01 -2.728743539507E-01 -8.449328924239E-02
C42 -4.019133351023E-01  2.728743539507E-01  8.449328924239E-02
C43 -4.187529973751E-01  3.694487750826E-01  1.825047354945E-01
C44  4.187529973751E-01 -3.694487750826E-01 -1.825047354945E-01
C45 -3.570924390418E-01  2.548464550256E-01  2.747710196922E-01
C46  3.570924390418E-01 -2.548464550256E-01 -2.747710196922E-01
C47 -3.738953745212E-01  3.539932683323E-01  3.702511979652E-01
C48  3.738953745212E-01 -3.539932683323E-01 -3.702511979652E-01
H49 -4.647950346652E-01 -3.481367025213E-01  4.582140526432E-01
H50  4.647950346652E-01  3.481367025213E-01 -4.582140526432E-01
H51  4.269681456021E-01 -1.397207566626E-01  3.029595561205E-01
H52 -4.269681456021E-01  1.397207566626E-01 -3.029595561205E-01
H53  3.824213068178E-01 -1.223854088545E-01  1.126290903755E-01
H54 -3.824213068178E-01  1.223854088545E-01 -1.126290903755E-01
H55  3.410900206115E-01 -1.029195830400E-01 -7.651048096299E-02
H56 -3.410900206115E-01  1.029195830400E-01  7.651048096299E-02
H57 -2.947885262025E-01  8.587537798304E-02  2.672464947303E-01
H58  2.947885262025E-01 -8.587537798304E-02 -2.672464947303E-01
H59 -3.257704250790E-01  2.648407571951E-01  4.407619917677E-01
H60  3.257704250790E-01 -2.648407571951E-01 -4.407619917677E-01


#===END

data_OPT_STEP_24

_symmetry_space_group_name_H-M 'P 1'
_cell_length_a      7.93937711
_cell_length_b      6.06213182
_cell_length_c     13.57814219
_cell_angle_alpha  100.648251
_cell_angle_beta  112.704062
_cell_angle_gamma   86.220757

loop_
_atom_site_label
_atom_site_fract_x
_atom_site_fract_y
_atom_site_fract_z
C1  1.209752941530E-01  4.183888061870E-02  3.910992321374E-01
C2 -1.209752941530E-01 -4.183888061870E-02 -3.910992321374E-01
C3  1.445189699897E-01  1.642578088301E-01  3.212073586543E-01
C4 -1.445189699897E-01 -1.642578088301E-01 -3.212073586543E-01
C5  8.256645329635E-02  7.720318668211E-02  2.060914807408E-01
C6 -8.256645329635E-02 -7.720318668211E-02 -2.060914807408E-01
C7  1.075347334499E-01  1.968390329984E-01  1.334061013695E-01
C8 -1.075347334499E-01 -1.968390329984E-01 -1.334061013695E-01
C9  4.552525916780E-02  1.093328812018E-01  2.040802917756E-02
C10 -4.552525916780E-02 -1.093328812018E-01 -2.040802917756E-02
C11  6.978060200490E-02  2.292972207669E-01 -5.396373644863E-02
C12 -6.978060200490E-02 -2.292972207669E-01  5.396373644863E-02
C13 -7.517039933083E-03 -1.419772778135E-01  1.653539535624E-01
C14  7.517039933083E-03  1.419772778135E-01 -1.653539535624E-01
C15 -3.059604516041E-02 -2.636301980637E-01  2.415840506846E-01
C16  3.059604516041E-02  2.636301980637E-01 -2.415840506846E-01
C17  3.232556073703E-02 -1.755285809864E-01  3.506704299760E-01
C18 -3.232556073703E-02  1.755285809864E-01 -3.506704299760E-01
H19  1.694340704147E-01  1.104486731919E-01  4.793555840235E-01
H20 -1.694340704147E-01 -1.104486731919E-01 -4.793555840235E-01
H21  2.106039256914E-01  3.329738128429E-01  3.513256816782E-01
H22 -2.106039256914E-01 -3.329738128429E-01 -3.513256816782E-01
H23  1.773067343994E-01  3.633894337049E-01  1.643972248202E-01
H24 -1.773067343994E-01 -3.633894337049E-01 -1.643972248202E-01
H25  1.385843319606E-01  3.963526394538E-01 -2.293798659651E-02
H26 -1.385843319606E-01 -3.963526394538E-01  2.293798659651E-02
H27 -9.970258458101E-02 -4.301983854787E-01  2.103761536286E-01
H28  9.970258458101E-02  4.301983854787E-01 -2.103761536286E-01
H29  1.341009223908E-02 -2.716202832363E-01  4.080585212978E-01
H30 -1.341009223908E-02  2.716202832363E-01 -4.080585212978E-01
C31 -4.532089782786E-01 -4.253653543988E-01  3.805053895799E-01
C32  4.532089782786E-01  4.253653543988E-01 -3.805053895799E-01
C33  4.869032291556E-01 -3.096676409270E-01  2.949191751187E-01
C34 -4.869032291556E-01  3.096676409270E-01 -2.949191751187E-01
C35 -4.982255298450E-01 -4.072172155886E-01  1.929231308890E-01
C36  4.982255298450E-01  4.072172155886E-01 -1.929231308890E-01
C37  4.427994984405E-01 -2.924738828974E-01  1.046551104478E-01
C38 -4.427994984405E-01  2.924738828974E-01 -1.046551104478E-01
C39  4.603443536157E-01 -3.883707952451E-01  5.192187434423E-03
C40 -4.603443536157E-01  3.883707952451E-01 -5.192187434423E-03
C41  4.020625865785E-01 -2.728118335064E-01 -8.452768957880E-02
C42 -4.020625865785E-01  2.728118335064E-01  8.452768957880E-02
C43 -4.189839361708E-01  3.694422828206E-01  1.825815608846E-01
C44  4.189839361708E-01 -3.694422828206E-01 -1.825815608846E-01
C45 -3.574479731266E-01  2.548033618863E-01  2.748848782724E-01
C46  3.574479731266E-01 -2.548033618863E-01 -2.748848782724E-01
C47 -3.741121103540E-01  3.541331071469E-01  3.704609493927E-01
C48  3.741121103540E-01 -3.541331071469E-01 -3.704609493927E-01
H49 -4.651617898494E-01 -3.480796413257E-01  4.584485784343E-01
H50  4.651617898494E-01  3.480796413257E-01 -4.584485784343E-01
H51  4.265238742237E-01 -1.396821563270E-01  3.030403686690E-01
H52 -4.265238742237E-01  1.396821563270E-01 -3.030403686690E-01
H53  3.816850388250E-01 -1.226448979011E-01  1.125166643611E-01
H54 -3.816850388250E-01  1.226448979011E-01 -1.125166643611E-01
H55  3.409439329615E-01 -1.029664420247E-01 -7.662131167051E-02
H56 -3.409439329615E-01  1.029664420247E-01  7.662131167051E-02
H57 -2.951151854292E-01  8.583883113358E-02  2.673796958779E-01
H58  2.951151854292E-01 -8.583883113358E-02 -2.673796958779E-01
H59 -3.262551699395E-01  2.648849907235E-01  4.409695944315E-01
H60  3.262551699395E-01 -2.648849907235E-01 -4.409695944315E-01


#===END

data_OPT_STEP_25

_symmetry_space_group_name_H-M 'P 1'
_cell_length_a      7.96002134
_cell_length_b      6.05246000
_cell_length_c     13.57559256
_cell_angle_alpha  100.685005
_cell_angle_beta  112.729900
_cell_angle_gamma   86.242384

loop_
_atom_site_label
_atom_site_fract_x
_atom_site_fract_y
_atom_site_fract_z
C1  1.206282231507E-01  4.187133632106E-02  3.912011871726E-01
C2 -1.206282231507E-01 -4.187133632106E-02 -3.912011871726E-01
C3  1.444559771101E-01  1.643718500291E-01  3.213960010966E-01
C4 -1.444559771101E-01 -1.643718500291E-01 -3.213960010966E-01
C5  8.263639784003E-02  7.716047556142E-02  2.062021713563E-01
C6 -8.263639784003E-02 -7.716047556142E-02 -2.062021713563E-01
C7  1.077643842592E-01  1.969246550843E-01  1.335797205854E-01
C8 -1.077643842592E-01 -1.969246550843E-01 -1.335797205854E-01
C9  4.561294617034E-02  1.094417579261E-01  2.048666131187E-02
C10 -4.561294617034E-02 -1.094417579261E-01 -2.048666131187E-02
C11  7.010043585135E-02  2.294925330992E-01 -5.381762818572E-02
C12 -7.010043585135E-02 -2.294925330992E-01  5.381762818572E-02
C13 -7.718851049519E-03 -1.421770665437E-01  1.653041225819E-01
C14  7.718851049519E-03  1.421770665437E-01 -1.653041225819E-01
C15 -3.118789349756E-02 -2.638338358929E-01  2.414371506653E-01
C16  3.118789349756E-02  2.638338358929E-01 -2.414371506653E-01
C17  3.165076722541E-02 -1.756263011965E-01  3.505964418498E-01
C18 -3.165076722541E-02  1.756263011965E-01 -3.505964418498E-01
H19  1.694639052227E-01  1.103151228393E-01  4.795602812917E-01
H20 -1.694639052227E-01 -1.103151228393E-01 -4.795602812917E-01
H21  2.107045599562E-01  3.332466050120E-01  3.516547600608E-01
H22 -2.107045599562E-01 -3.332466050120E-01 -3.516547600608E-01
H23  1.776912580087E-01  3.636166013167E-01  1.646831425469E-01
H24 -1.776912580087E-01 -3.636166013167E-01 -1.646831425469E-01
H25  1.395659959004E-01  3.964143025967E-01 -2.262313150681E-02
H26 -1.395659959004E-01 -3.964143025967E-01  2.262313150681E-02
H27 -1.004248618390E-01 -4.305324913878E-01  2.101294646257E-01
H28  1.004248618390E-01  4.305324913878E-01 -2.101294646257E-01
H29  1.281736063760E-02 -2.719475722598E-01  4.079503109273E-01
H30 -1.281736063760E-02  2.719475722598E-01 -4.079503109273E-01
C31 -4.536046637238E-01 -4.254791135937E-01  3.805350817765E-01
C32  4.536046637238E-01  4.254791135937E-01 -3.805350817765E-01
C33  4.864262296984E-01 -3.097392716678E-01  2.949070934603E-01
C34 -4.864262296984E-01  3.097392716678E-01 -2.949070934603E-01
C35 -4.983313814609E-01 -4.071840359466E-01  1.929586225150E-01
C36  4.983313814609E-01  4.071840359466E-01 -1.929586225150E-01
C37  4.426665952702E-01 -2.923641039120E-01  1.046598401188E-01
C38 -4.426665952702E-01  2.923641039120E-01 -1.046598401188E-01
C39  4.603241821761E-01 -3.882745882625E-01  5.194824220274E-03
C40 -4.603241821761E-01  3.882745882625E-01 -5.194824220274E-03
C41  4.019054830891E-01 -2.726973587958E-01 -8.457604161460E-02
C42 -4.019054830891E-01  2.726973587958E-01  8.457604161460E-02
C43 -4.188802880829E-01  3.693794753115E-01  1.826492893038E-01
C44  4.188802880829E-01 -3.693794753115E-01 -1.826492893038E-01
C45 -3.572642099258E-01  2.546857703111E-01  2.749933906636E-01
C46  3.572642099258E-01 -2.546857703111E-01 -2.749933906636E-01
C47 -3.742267448622E-01  3.539414226661E-01  3.705373626648E-01
C48  3.742267448622E-01 -3.539414226661E-01 -3.705373626648E-01
H49 -4.653254410364E-01 -3.480210863356E-01  4.585577052577E-01
H50  4.653254410364E-01  3.480210863356E-01 -4.585577052577E-01
H51  4.257967921993E-01 -1.397304893343E-01  3.029853321343E-01
H52 -4.257967921993E-01  1.397304893343E-01 -3.029853321343E-01
H53  3.812457877895E-01 -1.225402226234E-01  1.124581788854E-01
H54 -3.812457877895E-01  1.225402226234E-01 -1.124581788854E-01
H55  3.407555549488E-01 -1.027148113787E-01 -7.666602248449E-02
H56 -3.407555549488E-01  1.027148113787E-01  7.666602248449E-02
H57 -2.948564443403E-01  8.560576615642E-02  2.674921953807E-01
H58  2.948564443403E-01 -8.560576615642E-02 -2.674921953807E-01
H59 -3.261257946555E-01  2.647403627706E-01  4.411209481914E-01
H60  3.261257946555E-01 -2.647403627706E-01 -4.411209481914E-01


#===END

data_OPT_STEP_26

_symmetry_space_group_name_H-M 'P 1'
_cell_length_a      7.99090021
_cell_length_b      6.03061278
_cell_length_c     13.56661268
_cell_angle_alpha  100.605834
_cell_angle_beta  112.667283
_cell_angle_gamma   86.269654

loop_
_atom_site_label
_atom_site_fract_x
_atom_site_fract_y
_atom_site_fract_z
C1  1.218136666101E-01  4.108677695973E-02  3.915140130335E-01
C2 -1.218136666101E-01 -4.108677695973E-02 -3.915140130335E-01
C3  1.454500229214E-01  1.640149399539E-01  3.215349274208E-01
C4 -1.454500229214E-01 -1.640149399539E-01 -3.215349274208E-01
C5  8.315606498009E-02  7.694077301832E-02  2.063105997039E-01
C6 -8.315606498009E-02 -7.694077301832E-02 -2.063105997039E-01
C7  1.084379297596E-01  1.968499900648E-01  1.335529057603E-01
C8 -1.084379297596E-01 -1.968499900648E-01 -1.335529057603E-01
C9  4.570944773302E-02  1.096074693014E-01  2.041283060822E-02
C10 -4.570944773302E-02 -1.096074693014E-01 -2.041283060822E-02
C11  6.969837152352E-02  2.302621779354E-01 -5.407517717576E-02
C12 -6.969837152352E-02 -2.302621779354E-01  5.407517717576E-02
C13 -7.502456352590E-03 -1.426714137953E-01  1.655416153651E-01
C14  7.502456352590E-03  1.426714137953E-01 -1.655416153651E-01
C15 -3.086265466461E-02 -2.646759501433E-01  2.418544027264E-01
C16  3.086265466461E-02  2.646759501433E-01 -2.418544027264E-01
C17  3.248676970137E-02 -1.766629427333E-01  3.510488476013E-01
C18 -3.248676970137E-02  1.766629427333E-01 -3.510488476013E-01
H19  1.710278918507E-01  1.094582424270E-01  4.798988032553E-01
H20 -1.710278918507E-01 -1.094582424270E-01 -4.798988032553E-01
H21  2.121784139056E-01  3.329836005239E-01  3.517726765962E-01
H22 -2.121784139056E-01 -3.329836005239E-01 -3.517726765962E-01
H23  1.783444013171E-01  3.638670849108E-01  1.645475032137E-01
H24 -1.783444013171E-01 -3.638670849108E-01 -1.645475032137E-01
H25  1.394507277202E-01  3.973702459652E-01 -2.296486264324E-02
H26 -1.394507277202E-01 -3.973702459652E-01  2.296486264324E-02
H27 -1.001416100332E-01 -4.316544964773E-01  2.106306099523E-01
H28  1.001416100332E-01  4.316544964773E-01 -2.106306099523E-01
H29  1.412205677289E-02 -2.734950856736E-01  4.085468371104E-01
H30 -1.412205677289E-02  2.734950856736E-01 -4.085468371104E-01
C31 -4.529226539511E-01 -4.245223290306E-01  3.809260356841E-01
C32  4.529226539511E-01  4.245223290306E-01 -3.809260356841E-01
C33  4.874526711752E-01 -3.083784617287E-01  2.952129632130E-01
C34 -4.874526711752E-01  3.083784617287E-01 -2.952129632130E-01
C35 -4.973668181349E-01 -4.062261081706E-01  1.932530281354E-01
C36  4.973668181349E-01  4.062261081706E-01 -1.932530281354E-01
C37  4.434045592799E-01 -2.913153438933E-01  1.047359800650E-01
C38 -4.434045592799E-01  2.913153438933E-01 -1.047359800650E-01
C39  4.603116927912E-01 -3.879736547145E-01  5.078735586068E-03
C40 -4.603116927912E-01  3.879736547145E-01 -5.078735586068E-03
C41  4.007021584594E-01 -2.728685114247E-01 -8.510710794926E-02
C42 -4.007021584594E-01  2.728685114247E-01  8.510710794926E-02
C43 -4.178677579915E-01  3.697703850461E-01  1.831350654830E-01
C44  4.178677579915E-01 -3.697703850461E-01 -1.831350654830E-01
C45 -3.559008272578E-01  2.550760078215E-01  2.757194184889E-01
C46  3.559008272578E-01 -2.550760078215E-01 -2.757194184889E-01
C47 -3.733682374263E-01  3.544091870805E-01  3.711553954358E-01
C48  3.733682374263E-01 -3.544091870805E-01 -3.711553954358E-01
H49 -4.652556819469E-01 -3.471580369721E-01  4.588112530238E-01
H50  4.652556819469E-01  3.471580369721E-01 -4.588112530238E-01
H51  4.269553705067E-01 -1.378672844916E-01  3.031883240986E-01
H52 -4.269553705067E-01  1.378672844916E-01 -3.031883240986E-01
H53  3.820224260245E-01 -1.210332321628E-01  1.123933459354E-01
H54 -3.820224260245E-01  1.210332321628E-01 -1.123933459354E-01
H55  3.391311153355E-01 -1.026661575357E-01 -7.742992651086E-02
H56 -3.391311153355E-01  1.026661575357E-01  7.742992651086E-02
H57 -2.933610610470E-01  8.557735742303E-02  2.683877065590E-01
H58  2.933610610470E-01 -8.557735742303E-02 -2.683877065590E-01
H59 -3.253946747837E-01  2.649951698463E-01  4.418480527775E-01
H60  3.253946747837E-01 -2.649951698463E-01 -4.418480527775E-01


#===END

data_OPT_STEP_27

_symmetry_space_group_name_H-M 'P 1'
_cell_length_a      7.96631556
_cell_length_b      6.04688888
_cell_length_c     13.57309033
_cell_angle_alpha  100.706387
_cell_angle_beta  112.704295
_cell_angle_gamma   86.214763

loop_
_atom_site_label
_atom_site_fract_x
_atom_site_fract_y
_atom_site_fract_z
C1  1.208483731523E-01  4.180319385487E-02  3.912791439160E-01
C2 -1.208483731523E-01 -4.180319385487E-02 -3.912791439160E-01
C3  1.445846441052E-01  1.644266735125E-01  3.214483322505E-01
C4 -1.445846441052E-01 -1.644266735125E-01 -3.214483322505E-01
C5  8.268592078450E-02  7.720114950843E-02  2.062354390680E-01
C6 -8.268592078450E-02 -7.720114950843E-02 -2.062354390680E-01
C7  1.079707481668E-01  1.969022290887E-01  1.336112802159E-01
C8 -1.079707481668E-01 -1.969022290887E-01 -1.336112802159E-01
C9  4.563350317100E-02  1.094835541244E-01  2.048809819871E-02
C10 -4.563350317100E-02 -1.094835541244E-01 -2.048809819871E-02
C11  6.996363099317E-02  2.296861334296E-01 -5.384336032925E-02
C12 -6.996363099317E-02 -2.296861334296E-01  5.384336032925E-02
C13 -7.723705267702E-03 -1.422135819116E-01  1.653319007236E-01
C14  7.723705267702E-03  1.422135819116E-01 -1.653319007236E-01
C15 -3.120077241327E-02 -2.639192941907E-01  2.414853407843E-01
C16  3.120077241327E-02  2.639192941907E-01 -2.414853407843E-01
C17  3.176946369829E-02 -1.757477871993E-01  3.506683457216E-01
C18 -3.176946369829E-02  1.757477871993E-01 -3.506683457216E-01
H19  1.698209077698E-01  1.102231245531E-01  4.796622488338E-01
H20 -1.698209077698E-01 -1.102231245531E-01 -4.796622488338E-01
H21  2.109924743741E-01  3.333024997853E-01  3.517543529567E-01
H22 -2.109924743741E-01 -3.333024997853E-01 -3.517543529567E-01
H23  1.780420692709E-01  3.635771104914E-01  1.647349783112E-01
H24 -1.780420692709E-01 -3.635771104914E-01 -1.647349783112E-01
H25  1.395694432915E-01  3.966099031323E-01 -2.263076777418E-02
H26 -1.395694432915E-01 -3.966099031323E-01  2.263076777418E-02
H27 -1.005847205475E-01 -4.306072508608E-01  2.101504008846E-01
H28  1.005847205475E-01  4.306072508608E-01 -2.101504008846E-01
H29  1.310539402317E-02 -2.722097247121E-01  4.080430268091E-01
H30 -1.310539402317E-02  2.722097247121E-01 -4.080430268091E-01
C31 -4.534774231449E-01 -4.252209814904E-01  3.806505610780E-01
C32  4.534774231449E-01  4.252209814904E-01 -3.806505610780E-01
C33  4.866954274035E-01 -3.093035835295E-01  2.950590243251E-01
C34 -4.866954274035E-01  3.093035835295E-01 -2.950590243251E-01
C35 -4.981300738257E-01 -4.069150750831E-01  1.930572010472E-01
C36  4.981300738257E-01  4.069150750831E-01 -1.930572010472E-01
C37  4.428704879531E-01 -2.920079383382E-01  1.047553388054E-01
C38 -4.428704879531E-01  2.920079383382E-01 -1.047553388054E-01
C39  4.603312436867E-01 -3.881617912478E-01  5.205478659643E-03
C40 -4.603312436867E-01  3.881617912478E-01 -5.205478659643E-03
C41  4.015224603463E-01 -2.727236015204E-01 -8.465120340336E-02
C42 -4.015224603463E-01  2.727236015204E-01  8.465120340336E-02
C43 -4.186980888569E-01  3.694175710052E-01  1.827105259333E-01
C44  4.186980888569E-01 -3.694175710052E-01 -1.827105259333E-01
C45 -3.570161884948E-01  2.546756432290E-01  2.750708929623E-01
C46  3.570161884948E-01 -2.546756432290E-01 -2.750708929623E-01
C47 -3.741322517748E-01  3.539808296699E-01  3.706117781095E-01
C48  3.741322517748E-01 -3.539808296699E-01 -3.706117781095E-01
H49 -4.653553707054E-01 -3.477756942784E-01  4.586680700365E-01
H50  4.653553707054E-01  3.477756942784E-01 -4.586680700365E-01
H51  4.261815540733E-01 -1.390740139277E-01  3.031887047615E-01
H52 -4.261815540733E-01  1.390740139277E-01 -3.031887047615E-01
H53  3.814538312150E-01 -1.220189396393E-01  1.125744467745E-01
H54 -3.814538312150E-01  1.220189396393E-01 -1.125744467745E-01
H55  3.401281390833E-01 -1.027030503463E-01 -7.677495650116E-02
H56 -3.401281390833E-01  1.027030503463E-01  7.677495650116E-02
H57 -2.947090424017E-01  8.537402935487E-02  2.675218048287E-01
H58  2.947090424017E-01 -8.537402935487E-02 -2.675218048287E-01
H59 -3.261300572534E-01  2.646740475522E-01  4.411778406837E-01
H60  3.261300572534E-01 -2.646740475522E-01 -4.411778406837E-01


#===END

data_OPT_STEP_28

_symmetry_space_group_name_H-M 'P 1'
_cell_length_a      7.97430592
_cell_length_b      6.04265646
_cell_length_c     13.57155656
_cell_angle_alpha  100.712063
_cell_angle_beta  112.681442
_cell_angle_gamma   86.249824

loop_
_atom_site_label
_atom_site_fract_x
_atom_site_fract_y
_atom_site_fract_z
C1  1.208165986941E-01  4.153140482699E-02  3.912913403302E-01
C2 -1.208165986941E-01 -4.153140482699E-02 -3.912913403302E-01
C3  1.446346597191E-01  1.642709540937E-01  3.214846213940E-01
C4 -1.446346597191E-01 -1.642709540937E-01 -3.214846213940E-01
C5  8.256581757267E-02  7.716487768487E-02  2.062424076634E-01
C6 -8.256581757267E-02 -7.716487768487E-02 -2.062424076634E-01
C7  1.079822981846E-01  1.969447522588E-01  1.336552829633E-01
C8 -1.079822981846E-01 -1.969447522588E-01 -1.336552829633E-01
C9  4.570940844741E-02  1.095154855937E-01  2.051681084922E-02
C10 -4.570940844741E-02 -1.095154855937E-01 -2.051681084922E-02
C11  7.019421414971E-02  2.297832362369E-01 -5.377792778156E-02
C12 -7.019421414971E-02 -2.297832362369E-01  5.377792778156E-02
C13 -7.964667903698E-03 -1.423209719788E-01  1.652840762964E-01
C14  7.964667903698E-03  1.423209719788E-01 -1.652840762964E-01
C15 -3.142543851479E-02 -2.642207776877E-01  2.414219540184E-01
C16  3.142543851479E-02  2.642207776877E-01 -2.414219540184E-01
C17  3.144216182250E-02 -1.759953425507E-01  3.506203409837E-01
C18 -3.144216182250E-02  1.759953425507E-01 -3.506203409837E-01
H19  1.696888431583E-01  1.100306533681E-01  4.796742899106E-01
H20 -1.696888431583E-01 -1.100306533681E-01 -4.796742899106E-01
H21  2.112568148812E-01  3.331375357519E-01  3.518505563113E-01
H22 -2.112568148812E-01 -3.331375357519E-01 -3.518505563113E-01
H23  1.781332086379E-01  3.636751429476E-01  1.648307989000E-01
H24 -1.781332086379E-01 -3.636751429476E-01 -1.648307989000E-01
H25  1.400173442434E-01  3.966874573897E-01 -2.250961153110E-02
H26 -1.400173442434E-01 -3.966874573897E-01  2.250961153110E-02
H27 -1.008713571111E-01 -4.309621709895E-01  2.100399680955E-01
H28  1.008713571111E-01  4.309621709895E-01 -2.100399680955E-01
H29  1.251985755725E-02 -2.724151623179E-01  4.079563931091E-01
H30 -1.251985755725E-02  2.724151623179E-01 -4.079563931091E-01
C31 -4.533688910493E-01 -4.249412787524E-01  3.807291608887E-01
C32  4.533688910493E-01  4.249412787524E-01 -3.807291608887E-01
C33  4.864112117605E-01 -3.092781604194E-01  2.950420905270E-01
C34 -4.864112117605E-01  3.092781604194E-01 -2.950420905270E-01
C35 -4.982304250734E-01 -4.068558871293E-01  1.930677475438E-01
C36  4.982304250734E-01  4.068558871293E-01 -1.930677475438E-01
C37  4.428185789221E-01 -2.919472660258E-01  1.047531948346E-01
C38 -4.428185789221E-01  2.919472660258E-01 -1.047531948346E-01
C39  4.603231018845E-01 -3.881413481410E-01  5.196698284350E-03
C40 -4.603231018845E-01  3.881413481410E-01 -5.196698284350E-03
C41  4.014528694933E-01 -2.727660670500E-01 -8.469165075670E-02
C42 -4.014528694933E-01  2.727660670500E-01  8.469165075670E-02
C43 -4.186099859202E-01  3.695367308623E-01  1.827698569441E-01
C44  4.186099859202E-01 -3.695367308623E-01 -1.827698569441E-01
C45 -3.567260706197E-01  2.549438096611E-01  2.751932680627E-01
C46  3.567260706197E-01 -2.549438096611E-01 -2.751932680627E-01
C47 -3.738387942022E-01  3.543112414793E-01  3.707453791789E-01
C48  3.738387942022E-01 -3.543112414793E-01 -3.707453791789E-01
H49 -4.653534385336E-01 -3.475017738051E-01  4.587298160143E-01
H50  4.653534385336E-01  3.475017738051E-01 -4.587298160143E-01
H51  4.255586538718E-01 -1.392002346150E-01  3.030972278802E-01
H52 -4.255586538718E-01  1.392002346150E-01 -3.030972278802E-01
H53  3.815138097613E-01 -1.218713337196E-01  1.125906086480E-01
H54 -3.815138097613E-01  1.218713337196E-01 -1.125906086480E-01
H55  3.402545770755E-01 -1.026159508582E-01 -7.677862761156E-02
H56 -3.402545770755E-01  1.026159508582E-01  7.677862761156E-02
H57 -2.943627440174E-01  8.564046847234E-02  2.676571493294E-01
H58  2.943627440174E-01 -8.564046847234E-02 -2.676571493294E-01
H59 -3.256518835460E-01  2.651344671472E-01  4.413666825760E-01
H60  3.256518835460E-01 -2.651344671472E-01 -4.413666825760E-01


#===END

data_OPT_STEP_29

_symmetry_space_group_name_H-M 'P 1'
_cell_length_a      7.97816542
_cell_length_b      6.04034109
_cell_length_c     13.57124651
_cell_angle_alpha  100.793162
_cell_angle_beta  112.664953
_cell_angle_gamma   86.200546

loop_
_atom_site_label
_atom_site_fract_x
_atom_site_fract_y
_atom_site_fract_z
C1  1.204708225833E-01  4.171924718056E-02  3.912778978020E-01
C2 -1.204708225833E-01 -4.171924718056E-02 -3.912778978020E-01
C3  1.443589834258E-01  1.644790626436E-01  3.215433468109E-01
C4 -1.443589834258E-01 -1.644790626436E-01 -3.215433468109E-01
C5  8.243585188952E-02  7.725901671454E-02  2.062705137542E-01
C6 -8.243585188952E-02 -7.725901671454E-02 -2.062705137542E-01
C7  1.078855653999E-01  1.970660132794E-01  1.337481985435E-01
C8 -1.078855653999E-01 -1.970660132794E-01 -1.337481985435E-01
C9  4.564571961303E-02  1.095878208482E-01  2.056746039326E-02
C10 -4.564571961303E-02 -1.095878208482E-01 -2.056746039326E-02
C11  7.043856524563E-02  2.297078365417E-01 -5.363730724459E-02
C12 -7.043856524563E-02 -2.297078365417E-01  5.363730724459E-02
C13 -8.171816634216E-03 -1.422416030500E-01  1.651893884265E-01
C14  8.171816634216E-03  1.422416030500E-01 -1.651893884265E-01
C15 -3.184282690155E-02 -2.640656944470E-01  2.412409953541E-01
C16  3.184282690155E-02  2.640656944470E-01 -2.412409953541E-01
C17  3.099574821148E-02 -1.758081114569E-01  3.504848257383E-01
C18 -3.099574821148E-02  1.758081114569E-01 -3.504848257383E-01
H19  1.695648286092E-01  1.100986675669E-01  4.797172442050E-01
H20 -1.695648286092E-01 -1.100986675669E-01 -4.797172442050E-01
H21  2.111450963184E-01  3.333035532716E-01  3.520434388919E-01
H22 -2.111450963184E-01 -3.333035532716E-01 -3.520434388919E-01
H23  1.783337808323E-01  3.636537043825E-01  1.650533144377E-01
H24 -1.783337808323E-01 -3.636537043825E-01 -1.650533144377E-01
H25  1.401388589346E-01  3.967114716416E-01 -2.229057228123E-02
H26 -1.401388589346E-01 -3.967114716416E-01  2.229057228123E-02
H27 -1.015793169928E-01 -4.306892884449E-01  2.097359185525E-01
H28  1.015793169928E-01  4.306892884449E-01 -2.097359185525E-01
H29  1.193369897482E-02 -2.721760027405E-01  4.077573142371E-01
H30 -1.193369897482E-02  2.721760027405E-01 -4.077573142371E-01
C31 -4.535323982034E-01 -4.247882690158E-01  3.807577594129E-01
C32  4.535323982034E-01  4.247882690158E-01 -3.807577594129E-01
C33  4.861107483052E-01 -3.091561777123E-01  2.951115268072E-01
C34 -4.861107483052E-01  3.091561777123E-01 -2.951115268072E-01
C35 -4.983676146389E-01 -4.067538701502E-01  1.931058362751E-01
C36  4.983676146389E-01  4.067538701502E-01 -1.931058362751E-01
C37  4.427414499452E-01 -2.917826589124E-01  1.048614911162E-01
C38 -4.427414499452E-01  2.917826589124E-01 -1.048614911162E-01
C39  4.603051092713E-01 -3.880865655049E-01  5.256446469749E-03
C40 -4.603051092713E-01  3.880865655049E-01 -5.256446469749E-03
C41  4.015241282288E-01 -2.726300127323E-01 -8.455881200192E-02
C42 -4.015241282288E-01  2.726300127323E-01  8.455881200192E-02
C43 -4.186703850178E-01  3.695389455701E-01  1.827000519553E-01
C44  4.186703850178E-01 -3.695389455701E-01 -1.827000519553E-01
C45 -3.568395315520E-01  2.548864954898E-01  2.750536133984E-01
C46  3.568395315520E-01 -2.548864954898E-01 -2.750536133984E-01
C47 -3.739442608199E-01  3.543827480554E-01  3.706564977898E-01
C48  3.739442608199E-01 -3.543827480554E-01 -3.706564977898E-01
H49 -4.654904287990E-01 -3.472786598909E-01  4.588166776668E-01
H50  4.654904287990E-01  3.472786598909E-01 -4.588166776668E-01
H51  4.252194856664E-01 -1.389972285600E-01  3.032550265679E-01
H52 -4.252194856664E-01  1.389972285600E-01 -3.032550265679E-01
H53  3.815837086749E-01 -1.215225464455E-01  1.128276412957E-01
H54 -3.815837086749E-01  1.215225464455E-01 -1.128276412957E-01
H55  3.401540722041E-01 -1.024579047606E-01 -7.659648200813E-02
H56 -3.401540722041E-01  1.024579047606E-01  7.659648200813E-02
H57 -2.945400036998E-01  8.546387196400E-02  2.674008903507E-01
H58  2.945400036998E-01 -8.546387196400E-02 -2.674008903507E-01
H59 -3.257411414507E-01  2.652163377374E-01  4.412367916581E-01
H60  3.257411414507E-01 -2.652163377374E-01 -4.412367916581E-01


#===END

data_OPT_STEP_30

_symmetry_space_group_name_H-M 'P 1'
_cell_length_a      7.98593762
_cell_length_b      6.03642395
_cell_length_c     13.57152859
_cell_angle_alpha  100.757461
_cell_angle_beta  112.677753
_cell_angle_gamma   86.239624

loop_
_atom_site_label
_atom_site_fract_x
_atom_site_fract_y
_atom_site_fract_z
C1  1.206624642517E-01  4.114142883756E-02  3.912802824022E-01
C2 -1.206624642517E-01 -4.114142883756E-02 -3.912802824022E-01
C3  1.446940919872E-01  1.639903624374E-01  3.215814032363E-01
C4 -1.446940919872E-01 -1.639903624374E-01 -3.215814032363E-01
C5  8.256087835195E-02  7.699296327284E-02  2.062842938310E-01
C6 -8.256087835195E-02 -7.699296327284E-02 -2.062842938310E-01
C7  1.079556950553E-01  1.970195075644E-01  1.337729811715E-01
C8 -1.079556950553E-01 -1.970195075644E-01 -1.337729811715E-01
C9  4.568341564617E-02  1.096274302050E-01  2.058135219049E-02
C10 -4.568341564617E-02 -1.096274302050E-01 -2.058135219049E-02
C11  7.056807046333E-02  2.298679306580E-01 -5.360018542619E-02
C12 -7.056807046333E-02 -2.298679306580E-01  5.360018542619E-02
C13 -8.257504650506E-03 -1.425052562032E-01  1.651625190805E-01
C14  8.257504650506E-03  1.425052562032E-01 -1.651625190805E-01
C15 -3.199558171966E-02 -2.644723963443E-01  2.411836299546E-01
C16  3.199558171966E-02  2.644723963443E-01 -2.411836299546E-01
C17  3.114594390903E-02 -1.764725873242E-01  3.504626777950E-01
C18 -3.114594390903E-02  1.764725873242E-01 -3.504626777950E-01
H19  1.698655500102E-01  1.093968432942E-01  4.797316674990E-01
H20 -1.698655500102E-01 -1.093968432942E-01 -4.797316674990E-01
H21  2.113879128657E-01  3.329544657580E-01  3.520888265876E-01
H22 -2.113879128657E-01 -3.329544657580E-01 -3.520888265876E-01
H23  1.782244740031E-01  3.638093507758E-01  1.650809346395E-01
H24 -1.782244740031E-01 -3.638093507758E-01 -1.650809346395E-01
H25  1.401683819549E-01  3.970147238340E-01 -2.224862409035E-02
H26 -1.401683819549E-01 -3.970147238340E-01  2.224862409035E-02
H27 -1.016005985788E-01 -4.312477356039E-01  2.096728211663E-01
H28  1.016005985788E-01  4.312477356039E-01 -2.096728211663E-01
H29  1.210467744388E-02 -2.730019336051E-01  4.077243046729E-01
H30 -1.210467744388E-02  2.730019336051E-01 -4.077243046729E-01
C31 -4.536927616071E-01 -4.246072713255E-01  3.807187700435E-01
C32  4.536927616071E-01  4.246072713255E-01 -3.807187700435E-01
C33  4.861973966822E-01 -3.088920676599E-01  2.950487647110E-01
C34 -4.861973966822E-01  3.088920676599E-01 -2.950487647110E-01
C35 -4.982478510327E-01 -4.065632341063E-01  1.931011022310E-01
C36  4.982478510327E-01  4.065632341063E-01 -1.931011022310E-01
C37  4.429459985170E-01 -2.915766163719E-01  1.048179427587E-01
C38 -4.429459985170E-01  2.915766163719E-01 -1.048179427587E-01
C39  4.603180355897E-01 -3.880571323704E-01  5.203170008218E-03
C40 -4.603180355897E-01  3.880571323704E-01 -5.203170008218E-03
C41  4.014731153053E-01 -2.726760527276E-01 -8.468766581246E-02
C42 -4.014731153053E-01  2.726760527276E-01  8.468766581246E-02
C43 -4.185733782926E-01  3.696812963785E-01  1.828017827038E-01
C44  4.185733782926E-01 -3.696812963785E-01 -1.828017827038E-01
C45 -3.566466909586E-01  2.551255717191E-01  2.752361749787E-01
C46  3.566466909586E-01 -2.551255717191E-01 -2.752361749787E-01
C47 -3.738353843696E-01  3.546415856242E-01  3.707845909038E-01
C48  3.738353843696E-01 -3.546415856242E-01 -3.707845909038E-01
H49 -4.656269136766E-01 -3.470090544453E-01  4.587435869544E-01
H50  4.656269136766E-01  3.470090544453E-01 -4.587435869544E-01
H51  4.254802178937E-01 -1.386185317235E-01  3.031457740484E-01
H52 -4.254802178937E-01  1.386185317235E-01 -3.031457740484E-01
H53  3.819038526332E-01 -1.212239630322E-01  1.127332279847E-01
H54 -3.819038526332E-01  1.212239630322E-01 -1.127332279847E-01
H55  3.399733051918E-01 -1.025474264738E-01 -7.683025952747E-02
H56 -3.399733051918E-01  1.025474264738E-01  7.683025952747E-02
H57 -2.938698184555E-01  8.591271875168E-02  2.677691177123E-01
H58  2.938698184555E-01 -8.591271875168E-02 -2.677691177123E-01
H59 -3.253762193302E-01  2.656371016449E-01  4.414675786713E-01
H60  3.253762193302E-01 -2.656371016449E-01 -4.414675786713E-01


#===END

data_OPT_STEP_31

_symmetry_space_group_name_H-M 'P 1'
_cell_length_a      7.98615341
_cell_length_b      6.03581545
_cell_length_c     13.57131610
_cell_angle_alpha  100.748905
_cell_angle_beta  112.687293
_cell_angle_gamma   86.237977

loop_
_atom_site_label
_atom_site_fract_x
_atom_site_fract_y
_atom_site_fract_z
C1  1.205617043471E-01  4.117820048541E-02  3.912837617131E-01
C2 -1.205617043471E-01 -4.117820048541E-02 -3.912837617131E-01
C3  1.446606587665E-01  1.640015499494E-01  3.215902768004E-01
C4 -1.446606587665E-01 -1.640015499494E-01 -3.215902768004E-01
C5  8.257184248737E-02  7.698324445762E-02  2.062908179301E-01
C6 -8.257184248737E-02 -7.698324445762E-02 -2.062908179301E-01
C7  1.080362154869E-01  1.969823332586E-01  1.337824407570E-01
C8 -1.080362154869E-01 -1.969823332586E-01 -1.337824407570E-01
C9  4.571240579484E-02  1.096163228282E-01  2.058291634395E-02
C10 -4.571240579484E-02 -1.096163228282E-01 -2.058291634395E-02
C11  7.048309779455E-02  2.299382059862E-01 -5.361449315787E-02
C12 -7.048309779455E-02 -2.299382059862E-01  5.361449315787E-02
C13 -8.170809027011E-03 -1.425712600599E-01  1.651802914856E-01
C14  8.170809027011E-03  1.425712600599E-01 -1.651802914856E-01
C15 -3.188323639144E-02 -2.645759304717E-01  2.412041308972E-01
C16  3.188323639144E-02  2.645759304717E-01 -2.412041308972E-01
C17  3.111927631615E-02 -1.764931519437E-01  3.504736823382E-01
C18 -3.111927631615E-02  1.764931519437E-01 -3.504736823382E-01
H19  1.696182967079E-01  1.095208187260E-01  4.797242786250E-01
H20 -1.696182967079E-01 -1.095208187260E-01 -4.797242786250E-01
H21  2.113470489113E-01  3.329778887836E-01  3.520998513370E-01
H22 -2.113470489113E-01 -3.329778887836E-01 -3.520998513370E-01
H23  1.783344127605E-01  3.637673009881E-01  1.650895456711E-01
H24 -1.783344127605E-01 -3.637673009881E-01 -1.650895456711E-01
H25  1.401359599571E-01  3.970654828224E-01 -2.226121005181E-02
H26 -1.401359599571E-01 -3.970654828224E-01  2.226121005181E-02
H27 -1.015094222233E-01 -4.313504710321E-01  2.096970178136E-01
H28  1.015094222233E-01  4.313504710321E-01 -2.096970178136E-01
H29  1.200844646824E-02 -2.729925752459E-01  4.077351120994E-01
H30 -1.200844646824E-02  2.729925752459E-01 -4.077351120994E-01
C31 -4.537601687019E-01 -4.245862869469E-01  3.807040340639E-01
C32  4.537601687019E-01  4.245862869469E-01 -3.807040340639E-01
C33  4.861361853924E-01 -3.088641560476E-01  2.950147969105E-01
C34 -4.861361853924E-01  3.088641560476E-01 -2.950147969105E-01
C35 -4.983381097740E-01 -4.065811328297E-01  1.930719709238E-01
C36  4.983381097740E-01  4.065811328297E-01 -1.930719709238E-01
C37  4.428393762510E-01 -2.915989487821E-01  1.047708223092E-01
C38 -4.428393762510E-01  2.915989487821E-01 -1.047708223092E-01
C39  4.602973905744E-01 -3.880546899489E-01  5.186717351200E-03
C40 -4.602973905744E-01  3.880546899489E-01 -5.186717351200E-03
C41  4.014869298276E-01 -2.726482726200E-01 -8.471244524135E-02
C42 -4.014869298276E-01  2.726482726200E-01  8.471244524135E-02
C43 -4.186428639144E-01  3.696462286612E-01  1.828046372230E-01
C44  4.186428639144E-01 -3.696462286612E-01 -1.828046372230E-01
C45 -3.567337220254E-01  2.550784312610E-01  2.752509576074E-01
C46  3.567337220254E-01 -2.550784312610E-01 -2.752509576074E-01
C47 -3.739520979525E-01  3.546122309578E-01  3.707865006735E-01
C48  3.739520979525E-01 -3.546122309578E-01 -3.707865006735E-01
H49 -4.656665957591E-01 -3.469502286168E-01  4.587267898714E-01
H50  4.656665957591E-01  3.469502286168E-01 -4.587267898714E-01
H51  4.253538706616E-01 -1.386035427709E-01  3.030752111978E-01
H52 -4.253538706616E-01  1.386035427709E-01 -3.030752111978E-01
H53  3.816772094466E-01 -1.212850691767E-01  1.126406100152E-01
H54 -3.816772094466E-01  1.212850691767E-01 -1.126406100152E-01
H55  3.399824707020E-01 -1.025044105542E-01 -7.687340575262E-02
H56 -3.399824707020E-01  1.025044105542E-01  7.687340575262E-02
H57 -2.940941170075E-01  8.578392274616E-02  2.677732787394E-01
H58  2.940941170075E-01 -8.578392274616E-02 -2.677732787394E-01
H59 -3.255789071509E-01  2.655712706511E-01  4.414634861427E-01
H60  3.255789071509E-01 -2.655712706511E-01 -4.414634861427E-01


#===END

data_OPT_STEP_32

_symmetry_space_group_name_H-M 'P 1'
_cell_length_a      7.98751009
_cell_length_b      6.03500763
_cell_length_c     13.57092687
_cell_angle_alpha  100.742543
_cell_angle_beta  112.687057
_cell_angle_gamma   86.235218

loop_
_atom_site_label
_atom_site_fract_x
_atom_site_fract_y
_atom_site_fract_z
C1  1.206485293498E-01  4.122143708678E-02  3.913072616447E-01
C2 -1.206485293498E-01 -4.122143708678E-02 -3.913072616447E-01
C3  1.445237517576E-01  1.641786328830E-01  3.215726308423E-01
C4 -1.445237517576E-01 -1.641786328830E-01 -3.215726308423E-01
C5  8.250978225477E-02  7.708362721524E-02  2.062834948534E-01
C6 -8.250978225477E-02 -7.708362721524E-02 -2.062834948534E-01
C7  1.079226100637E-01  1.970934650038E-01  1.337512183526E-01
C8 -1.079226100637E-01 -1.970934650038E-01 -1.337512183526E-01
C9  4.571640034539E-02  1.096152804557E-01  2.057054802981E-02
C10 -4.571640034539E-02 -1.096152804557E-01 -2.057054802981E-02
C11  7.040805075810E-02  2.299644686285E-01 -5.365018054709E-02
C12 -7.040805075810E-02 -2.299644686285E-01  5.365018054709E-02
C13 -8.164342619744E-03 -1.425158969023E-01  1.652053339968E-01
C14  8.164342619744E-03  1.425158969023E-01 -1.652053339968E-01
C15 -3.181736332465E-02 -2.645428674229E-01  2.412538777094E-01
C16  3.181736332465E-02  2.645428674229E-01 -2.412538777094E-01
C17  3.114070264345E-02 -1.764199229460E-01  3.505122642992E-01
C18 -3.114070264345E-02  1.764199229460E-01 -3.505122642992E-01
H19  1.697283813501E-01  1.095636309055E-01  4.797476033753E-01
H20 -1.697283813501E-01 -1.095636309055E-01 -4.797476033753E-01
H21  2.113379002181E-01  3.330885565737E-01  3.520882958162E-01
H22 -2.113379002181E-01 -3.330885565737E-01 -3.520882958162E-01
H23  1.783043594593E-01  3.638345882947E-01  1.650443871100E-01
H24 -1.783043594593E-01 -3.638345882947E-01 -1.650443871100E-01
H25  1.400568037509E-01  3.971035280017E-01 -2.231678602029E-02
H26 -1.400568037509E-01 -3.971035280017E-01  2.231678602029E-02
H27 -1.015352851843E-01 -4.312796386044E-01  2.097518172524E-01
H28  1.015352851843E-01  4.312796386044E-01 -2.097518172524E-01
H29  1.221855512291E-02 -2.730364431878E-01  4.077957683352E-01
H30 -1.221855512291E-02  2.730364431878E-01 -4.077957683352E-01
C31 -4.535787918443E-01 -4.244248261036E-01  3.807495373298E-01
C32  4.535787918443E-01  4.244248261036E-01 -3.807495373298E-01
C33  4.861466229985E-01 -3.088064672544E-01  2.950081992462E-01
C34 -4.861466229985E-01  3.088064672544E-01 -2.950081992462E-01
C35 -4.983155840812E-01 -4.065461742760E-01  1.930712467834E-01
C36  4.983155840812E-01  4.065461742760E-01 -1.930712467834E-01
C37  4.427335325772E-01 -2.916274501469E-01  1.047276647147E-01
C38 -4.427335325772E-01  2.916274501469E-01 -1.047276647147E-01
C39  4.602916220681E-01 -3.880434934257E-01  5.175674344099E-03
C40 -4.602916220681E-01  3.880434934257E-01 -5.175674344099E-03
C41  4.014299104143E-01 -2.726516554929E-01 -8.474592502103E-02
C42 -4.014299104143E-01  2.726516554929E-01  8.474592502103E-02
C43 -4.185854552930E-01  3.696701660594E-01  1.828328468239E-01
C44  4.185854552930E-01 -3.696701660594E-01 -1.828328468239E-01
C45 -3.566761397136E-01  2.551066968738E-01  2.752964740302E-01
C46  3.566761397136E-01 -2.551066968738E-01 -2.752964740302E-01
C47 -3.738648436270E-01  3.547071926701E-01  3.708369068012E-01
C48  3.738648436270E-01 -3.547071926701E-01 -3.708369068012E-01
H49 -4.655636149047E-01 -3.467768661859E-01  4.587507899918E-01
H50  4.655636149047E-01  3.467768661859E-01 -4.587507899918E-01
H51  4.252363805428E-01 -1.385893400106E-01  3.030210505127E-01
H52 -4.252363805428E-01  1.385893400106E-01 -3.030210505127E-01
H53  3.815051528177E-01 -1.213269094423E-01  1.125669346394E-01
H54 -3.815051528177E-01  1.213269094423E-01 -1.125669346394E-01
H55  3.400516615748E-01 -1.024220024915E-01 -7.689192315230E-02
H56 -3.400516615748E-01  1.024220024915E-01  7.689192315230E-02
H57 -2.941670631819E-01  8.572745049360E-02  2.678095569769E-01
H58  2.941670631819E-01 -8.572745049360E-02 -2.678095569769E-01
H59 -3.255971906137E-01  2.656345750222E-01  4.415062758134E-01
H60  3.255971906137E-01 -2.656345750222E-01 -4.415062758134E-01


#===END

data_OPT_STEP_33

_symmetry_space_group_name_H-M 'P 1'
_cell_length_a      7.98856380
_cell_length_b      6.03372688
_cell_length_c     13.57073857
_cell_angle_alpha  100.741031
_cell_angle_beta  112.686386
_cell_angle_gamma   86.241016

loop_
_atom_site_label
_atom_site_fract_x
_atom_site_fract_y
_atom_site_fract_z
C1  1.204986422073E-01  4.120771862711E-02  3.912926367687E-01
C2 -1.204986422073E-01 -4.120771862711E-02 -3.912926367687E-01
C3  1.444896752718E-01  1.641469857713E-01  3.215766709367E-01
C4 -1.444896752718E-01 -1.641469857713E-01 -3.215766709367E-01
C5  8.247991460165E-02  7.706386455125E-02  2.062839229754E-01
C6 -8.247991460165E-02 -7.706386455125E-02 -2.062839229754E-01
C7  1.079496017332E-01  1.970907675975E-01  1.337644514857E-01
C8 -1.079496017332E-01 -1.970907675975E-01 -1.337644514857E-01
C9  4.573153243110E-02  1.096292341006E-01  2.057829963779E-02
C10 -4.573153243110E-02 -1.096292341006E-01 -2.057829963779E-02
C11  7.049712852646E-02  2.299842394749E-01 -5.362869572173E-02
C12 -7.049712852646E-02 -2.299842394749E-01  5.362869572173E-02
C13 -8.242671351524E-03 -1.425531813584E-01  1.651888538757E-01
C14  8.242671351524E-03  1.425531813584E-01 -1.651888538757E-01
C15 -3.193681490629E-02 -2.646128135338E-01  2.412255487468E-01
C16  3.193681490629E-02  2.646128135338E-01 -2.412255487468E-01
C17  3.097830903946E-02 -1.764736689566E-01  3.504846224563E-01
C18 -3.097830903946E-02  1.764736689566E-01 -3.504846224563E-01
H19  1.695461119888E-01  1.095623080802E-01  4.797334458525E-01
H20 -1.695461119888E-01 -1.095623080802E-01 -4.797334458525E-01
H21  2.113283745719E-01  3.330777802807E-01  3.521055225118E-01
H22 -2.113283745719E-01 -3.330777802807E-01 -3.521055225118E-01
H23  1.783266560035E-01  3.638712181903E-01  1.650666856787E-01
H24 -1.783266560035E-01 -3.638712181903E-01 -1.650666856787E-01
H25  1.402265846527E-01  3.971125164004E-01 -2.227896023638E-02
H26 -1.402265846527E-01 -3.971125164004E-01  2.227896023638E-02
H27 -1.016392138606E-01 -4.313903064496E-01  2.097170640109E-01
H28  1.016392138606E-01  4.313903064496E-01 -2.097170640109E-01
H29  1.198255970641E-02 -2.730898317002E-01  4.077557203771E-01
H30 -1.198255970641E-02  2.730898317002E-01 -4.077557203771E-01
C31 -4.536279127114E-01 -4.243384294842E-01  3.807489118601E-01
C32  4.536279127114E-01  4.243384294842E-01 -3.807489118601E-01
C33  4.860377801731E-01 -3.087620355528E-01  2.949841174016E-01
C34 -4.860377801731E-01  3.087620355528E-01 -2.949841174016E-01
C35 -4.984671258413E-01 -4.065658613713E-01  1.930396273419E-01
C36  4.984671258413E-01  4.065658613713E-01 -1.930396273419E-01
C37  4.426491543446E-01 -2.916191270308E-01  1.046975403651E-01
C38 -4.426491543446E-01  2.916191270308E-01 -1.046975403651E-01
C39  4.602801357152E-01 -3.880337967915E-01  5.165398584841E-03
C40 -4.602801357152E-01  3.880337967915E-01 -5.165398584841E-03
C41  4.014654634943E-01 -2.726262258126E-01 -8.475933127977E-02
C42 -4.014654634943E-01  2.726262258126E-01  8.475933127977E-02
C43 -4.186956640602E-01  3.696412744857E-01  1.828267414511E-01
C44  4.186956640602E-01 -3.696412744857E-01 -1.828267414511E-01
C45 -3.567593747992E-01  2.551055990768E-01  2.753093461092E-01
C46  3.567593747992E-01 -2.551055990768E-01 -2.753093461092E-01
C47 -3.739090640902E-01  3.547669821090E-01  3.708544958887E-01
C48  3.739090640902E-01 -3.547669821090E-01 -3.708544958887E-01
H49 -4.655996413979E-01 -3.466529619437E-01  4.587507075620E-01
H50  4.655996413979E-01  3.466529619437E-01 -4.587507075620E-01
H51  4.251550661044E-01 -1.385074070682E-01  3.029901507205E-01
H52 -4.251550661044E-01  1.385074070682E-01 -3.029901507205E-01
H53  3.813666277462E-01 -1.213230845483E-01  1.125127608931E-01
H54 -3.813666277462E-01  1.213230845483E-01 -1.125127608931E-01
H55  3.399851310022E-01 -1.024250719817E-01 -7.693963379924E-02
H56 -3.399851310022E-01  1.024250719817E-01  7.693963379924E-02
H57 -2.942746739150E-01  8.569106449241E-02  2.678305793918E-01
H58  2.942746739150E-01 -8.569106449241E-02 -2.678305793918E-01
H59 -3.256257612904E-01  2.657155384021E-01  4.415374996296E-01
H60  3.256257612904E-01 -2.657155384021E-01 -4.415374996296E-01


#===END

data_OPT_STEP_34

_symmetry_space_group_name_H-M 'P 1'
_cell_length_a      7.98979489
_cell_length_b      6.03275327
_cell_length_c     13.57071790
_cell_angle_alpha  100.743056
_cell_angle_beta  112.686653
_cell_angle_gamma   86.231936

loop_
_atom_site_label
_atom_site_fract_x
_atom_site_fract_y
_atom_site_fract_z
C1  1.204903585412E-01  4.118734904105E-02  3.912930756800E-01
C2 -1.204903585412E-01 -4.118734904105E-02 -3.912930756800E-01
C3  1.445678363035E-01  1.640830568600E-01  3.215861567415E-01
C4 -1.445678363035E-01 -1.640830568600E-01 -3.215861567415E-01
C5  8.251607451260E-02  7.703387959552E-02  2.062893604626E-01
C6 -8.251607451260E-02 -7.703387959552E-02 -2.062893604626E-01
C7  1.080722412950E-01  1.970187336790E-01  1.337795333932E-01
C8 -1.080722412950E-01 -1.970187336790E-01 -1.337795333932E-01
C9  4.574165442066E-02  1.096275198963E-01  2.058064902193E-02
C10 -4.574165442066E-02 -1.096275198963E-01 -2.058064902193E-02
C11  7.046755881864E-02  2.300187438854E-01 -5.363018070481E-02
C12 -7.046755881864E-02 -2.300187438854E-01  5.363018070481E-02
C13 -8.175408170064E-03 -1.426142980319E-01  1.651944668581E-01
C14  8.175408170064E-03  1.426142980319E-01 -1.651944668581E-01
C15 -3.189029724560E-02 -2.646773154802E-01  2.412283383366E-01
C16  3.189029724560E-02  2.646773154802E-01 -2.412283383366E-01
C17  3.100722064567E-02 -1.765262592183E-01  3.504880034806E-01
C18 -3.100722064567E-02  1.765262592183E-01 -3.504880034806E-01
H19  1.695263978468E-01  1.095468466527E-01  4.797337668193E-01
H20 -1.695263978468E-01 -1.095468466527E-01 -4.797337668193E-01
H21  2.113700483850E-01  3.330418518518E-01  3.521207722181E-01
H22 -2.113700483850E-01 -3.330418518518E-01 -3.521207722181E-01
H23  1.784609692143E-01  3.638028406063E-01  1.650865615758E-01
H24 -1.784609692143E-01 -3.638028406063E-01 -1.650865615758E-01
H25  1.402191792929E-01  3.971415226081E-01 -2.227616261849E-02
H26 -1.402191792929E-01 -3.971415226081E-01  2.227616261849E-02
H27 -1.015925815729E-01 -4.314688727775E-01  2.097177980788E-01
H28  1.015925815729E-01  4.314688727775E-01 -2.097177980788E-01
H29  1.186487078739E-02 -2.730651021077E-01  4.077478752755E-01
H30 -1.186487078739E-02  2.730651021077E-01 -4.077478752755E-01
C31 -4.537563397917E-01 -4.241690992339E-01  3.807401221289E-01
C32  4.537563397917E-01  4.241690992339E-01 -3.807401221289E-01
C33  4.860289335673E-01 -3.085563840331E-01  2.949816206801E-01
C34 -4.860289335673E-01  3.085563840331E-01 -2.949816206801E-01
C35 -4.984194756182E-01 -4.064082826121E-01  1.930543787755E-01
C36  4.984194756182E-01  4.064082826121E-01 -1.930543787755E-01
C37  4.426852930797E-01 -2.914961652037E-01  1.046905024769E-01
C38 -4.426852930797E-01  2.914961652037E-01 -1.046905024769E-01
C39  4.602491468301E-01 -3.880273652469E-01  5.144738439728E-03
C40 -4.602491468301E-01  3.880273652469E-01 -5.144738439728E-03
C41  4.014729122996E-01 -2.726270856239E-01 -8.479124574803E-02
C42 -4.014729122996E-01  2.726270856239E-01  8.479124574803E-02
C43 -4.186581058510E-01  3.697470569244E-01  1.828653973120E-01
C44  4.186581058510E-01 -3.697470569244E-01 -1.828653973120E-01
C45 -3.567513451657E-01  2.552292498575E-01  2.753618481321E-01
C46  3.567513451657E-01 -2.552292498575E-01 -2.753618481321E-01
C47 -3.739813642616E-01  3.549218328792E-01  3.708792246886E-01
C48  3.739813642616E-01 -3.549218328792E-01 -3.708792246886E-01
H49 -4.657245299238E-01 -3.464186115461E-01  4.587379133017E-01
H50  4.657245299238E-01  3.464186115461E-01 -4.587379133017E-01
H51  4.250984477679E-01 -1.382908487223E-01  3.029583730539E-01
H52 -4.250984477679E-01  1.382908487223E-01 -3.029583730539E-01
H53  3.813637287043E-01 -1.211855238295E-01  1.124776786394E-01
H54 -3.813637287043E-01  1.211855238295E-01 -1.124776786394E-01
H55  3.400420251271E-01 -1.023627656972E-01 -7.698033843540E-02
H56 -3.400420251271E-01  1.023627656972E-01  7.698033843540E-02
H57 -2.942259448430E-01  8.579744592807E-02  2.679118129764E-01
H58  2.942259448430E-01 -8.579744592807E-02 -2.679118129764E-01
H59 -3.256956022382E-01  2.658971708921E-01  4.415762031839E-01
H60  3.256956022382E-01 -2.658971708921E-01 -4.415762031839E-01


#===END

data_OPT_STEP_35

_symmetry_space_group_name_H-M 'P 1'
_cell_length_a      7.99108310
_cell_length_b      6.03217279
_cell_length_c     13.57103076
_cell_angle_alpha  100.737305
_cell_angle_beta  112.703592
_cell_angle_gamma   86.233728

loop_
_atom_site_label
_atom_site_fract_x
_atom_site_fract_y
_atom_site_fract_z
C1  1.203956151389E-01  4.121878713714E-02  3.912956971680E-01
C2 -1.203956151389E-01 -4.121878713714E-02 -3.912956971680E-01
C3  1.444834160806E-01  1.641289663411E-01  3.215960808539E-01
C4 -1.444834160806E-01 -1.641289663411E-01 -3.215960808539E-01
C5  8.246854814006E-02  7.705832986035E-02  2.062938059781E-01
C6 -8.246854814006E-02 -7.705832986035E-02 -2.062938059781E-01
C7  1.080366501800E-01  1.970561760351E-01  1.337902426231E-01
C8 -1.080366501800E-01 -1.970561760351E-01 -1.337902426231E-01
C9  4.576080992718E-02  1.096263075547E-01  2.058825691354E-02
C10 -4.576080992718E-02 -1.096263075547E-01 -2.058825691354E-02
C11  7.052602893987E-02  2.300072784165E-01 -5.361626164073E-02
C12 -7.052602893987E-02 -2.300072784165E-01  5.361626164073E-02
C13 -8.239444230610E-03 -1.425983524830E-01  1.651872333863E-01
C14  8.239444230610E-03  1.425983524830E-01 -1.651872333863E-01
C15 -3.196346812024E-02 -2.646785879238E-01  2.412128555179E-01
C16  3.196346812024E-02  2.646785879238E-01 -2.412128555179E-01
C17  3.093123930509E-02 -1.765245447818E-01  3.504813102853E-01
C18 -3.093123930509E-02  1.765245447818E-01 -3.504813102853E-01
H19  1.693691467457E-01  1.096168758748E-01  4.797346798978E-01
H20 -1.693691467457E-01 -1.096168758748E-01 -4.797346798978E-01
H21  2.112693927530E-01  3.331083057119E-01  3.521381743395E-01
H22 -2.112693927530E-01 -3.331083057119E-01 -3.521381743395E-01
H23  1.784297189754E-01  3.638532783686E-01  1.651048917337E-01
H24 -1.784297189754E-01 -3.638532783686E-01 -1.651048917337E-01
H25  1.402757383543E-01  3.971429195462E-01 -2.225659412232E-02
H26 -1.402757383543E-01 -3.971429195462E-01  2.225659412232E-02
H27 -1.016645967803E-01 -4.314837833872E-01  2.096941823192E-01
H28  1.016645967803E-01  4.314837833872E-01 -2.096941823192E-01
H29  1.179030192081E-02 -2.730789215231E-01  4.077381894666E-01
H30 -1.179030192081E-02  2.730789215231E-01 -4.077381894666E-01
C31 -4.538947740157E-01 -4.241087485606E-01  3.807096431098E-01
C32  4.538947740157E-01  4.241087485606E-01 -3.807096431098E-01
C33  4.859316223132E-01 -3.084990947601E-01  2.949327598119E-01
C34 -4.859316223132E-01  3.084990947601E-01 -2.949327598119E-01
C35 -4.985258341627E-01 -4.064001753169E-01  1.930194568232E-01
C36  4.985258341627E-01  4.064001753169E-01 -1.930194568232E-01
C37  4.426356846298E-01 -2.914813748723E-01  1.046454404163E-01
C38 -4.426356846298E-01  2.914813748723E-01 -1.046454404163E-01
C39  4.602778455023E-01 -3.880072897015E-01  5.132485527317E-03
C40 -4.602778455023E-01  3.880072897015E-01 -5.132485527317E-03
C41  4.015119939532E-01 -2.726251339191E-01 -8.482464950777E-02
C42 -4.015119939532E-01  2.726251339191E-01  8.482464950777E-02
C43 -4.187643880693E-01  3.697430702839E-01  1.828697151036E-01
C44  4.187643880693E-01 -3.697430702839E-01 -1.828697151036E-01
C45 -3.568468190996E-01  2.552594875791E-01  2.753925177844E-01
C46  3.568468190996E-01 -2.552594875791E-01 -2.753925177844E-01
C47 -3.740857686103E-01  3.549812061657E-01  3.708942150042E-01
C48  3.740857686103E-01 -3.549812061657E-01 -3.708942150042E-01
H49 -4.657941867699E-01 -3.462806803466E-01  4.587088448166E-01
H50  4.657941867699E-01  3.462806803466E-01 -4.587088448166E-01
H51  4.250302080342E-01 -1.382102290341E-01  3.028849255218E-01
H52 -4.250302080342E-01  1.382102290341E-01 -3.028849255218E-01
H53  3.813699196190E-01 -1.211338755626E-01  1.124180706221E-01
H54 -3.813699196190E-01  1.211338755626E-01 -1.124180706221E-01
H55  3.400224876639E-01 -1.023833032348E-01 -7.705399695945E-02
H56 -3.400224876639E-01  1.023833032348E-01  7.705399695945E-02
H57 -2.942531496159E-01  8.585678935293E-02  2.679854686739E-01
H58  2.942531496159E-01 -8.585678935293E-02 -2.679854686739E-01
H59 -3.257356585402E-01  2.660099720303E-01  4.416222048101E-01
H60  3.257356585402E-01 -2.660099720303E-01 -4.416222048101E-01


#===END

data_OPT_STEP_36

_symmetry_space_group_name_H-M 'P 1'
_cell_length_a      7.99259349
_cell_length_b      6.03114551
_cell_length_c     13.57059288
_cell_angle_alpha  100.732874
_cell_angle_beta  112.696763
_cell_angle_gamma   86.238877

loop_
_atom_site_label
_atom_site_fract_x
_atom_site_fract_y
_atom_site_fract_z
C1  1.204135751814E-01  4.126255924844E-02  3.913064636158E-01
C2 -1.204135751814E-01 -4.126255924844E-02 -3.913064636158E-01
C3  1.445148356930E-01  1.641671598976E-01  3.215965031804E-01
C4 -1.445148356930E-01 -1.641671598976E-01 -3.215965031804E-01
C5  8.249297542762E-02  7.708021849372E-02  2.062973893174E-01
C6 -8.249297542762E-02 -7.708021849372E-02 -2.062973893174E-01
C7  1.080161514483E-01  1.971069038099E-01  1.337760266920E-01
C8 -1.080161514483E-01 -1.971069038099E-01 -1.337760266920E-01
C9  4.574221421405E-02  1.096509409449E-01  2.057793512474E-02
C10 -4.574221421405E-02 -1.096509409449E-01 -2.057793512474E-02
C11  7.053094872573E-02  2.300176767749E-01 -5.363655991030E-02
C12 -7.053094872573E-02 -2.300176767749E-01  5.363655991030E-02
C13 -8.265900385537E-03 -1.425728874804E-01  1.652016009854E-01
C14  8.265900385537E-03  1.425728874804E-01 -1.652016009854E-01
C15 -3.200529002768E-02 -2.646412108510E-01  2.412385902765E-01
C16  3.200529002768E-02  2.646412108510E-01 -2.412385902765E-01
C17  3.092049988150E-02 -1.764865530752E-01  3.505058704535E-01
C18 -3.092049988150E-02  1.764865530752E-01 -3.505058704535E-01
H19  1.693891379998E-01  1.096734114124E-01  4.797424130421E-01
H20 -1.693891379998E-01 -1.096734114124E-01 -4.797424130421E-01
H21  2.113264509215E-01  3.331506578590E-01  3.521305569664E-01
H22 -2.113264509215E-01 -3.331506578590E-01 -3.521305569664E-01
H23  1.783859392550E-01  3.639370910263E-01  1.650745818609E-01
H24 -1.783859392550E-01 -3.639370910263E-01 -1.650745818609E-01
H25  1.402710354507E-01  3.971784388337E-01 -2.229096171592E-02
H26 -1.402710354507E-01 -3.971784388337E-01  2.229096171592E-02
H27 -1.016853091515E-01 -4.314784522436E-01  2.097312729861E-01
H28  1.016853091515E-01  4.314784522436E-01 -2.097312729861E-01
H29  1.184201840778E-02 -2.730849756999E-01  4.077756078844E-01
H30 -1.184201840778E-02  2.730849756999E-01 -4.077756078844E-01
C31 -4.538901385102E-01 -4.238945574438E-01  3.807246569971E-01
C32  4.538901385102E-01  4.238945574438E-01 -3.807246569971E-01
C33  4.858874018795E-01 -3.083544938351E-01  2.949145631698E-01
C34 -4.858874018795E-01  3.083544938351E-01 -2.949145631698E-01
C35 -4.985692072558E-01 -4.063223637272E-01  1.930081175585E-01
C36  4.985692072558E-01  4.063223637272E-01 -1.930081175585E-01
C37  4.425862686965E-01 -2.914391330335E-01  1.046156347220E-01
C38 -4.425862686965E-01  2.914391330335E-01 -1.046156347220E-01
C39  4.602601068605E-01 -3.880010318228E-01  5.115602228741E-03
C40 -4.602601068605E-01  3.880010318228E-01 -5.115602228741E-03
C41  4.014929492877E-01 -2.726524770157E-01 -8.486034901655E-02
C42 -4.014929492877E-01  2.726524770157E-01  8.486034901655E-02
C43 -4.187725274134E-01  3.698118635460E-01  1.828935289198E-01
C44  4.187725274134E-01 -3.698118635460E-01 -1.828935289198E-01
C45 -3.568434944295E-01  2.553733542188E-01  2.754414140046E-01
C46  3.568434944295E-01 -2.553733542188E-01 -2.754414140046E-01
C47 -3.740715191834E-01  3.551661669425E-01  3.709411325573E-01
C48  3.740715191834E-01 -3.551661669425E-01 -3.709411325573E-01
H49 -4.658222183911E-01 -3.460085434585E-01  4.587095225236E-01
H50  4.658222183911E-01  3.460085434585E-01 -4.587095225236E-01
H51  4.249909921270E-01 -1.380423170140E-01  3.028429171743E-01
H52 -4.249909921270E-01  1.380423170140E-01 -3.028429171743E-01
H53  3.812969487355E-01 -1.210840173408E-01  1.123646329163E-01
H54 -3.812969487355E-01  1.210840173408E-01 -1.123646329163E-01
H55  3.399736926807E-01 -1.024066059286E-01 -7.711540360953E-02
H56 -3.399736926807E-01  1.024066059286E-01  7.711540360953E-02
H57 -2.942637709315E-01  8.594410706595E-02  2.680525333315E-01
H58  2.942637709315E-01 -8.594410706595E-02 -2.680525333315E-01
H59 -3.257449586722E-01  2.662138952219E-01  4.416810140873E-01
H60  3.257449586722E-01 -2.662138952219E-01 -4.416810140873E-01


#===END

data_OPT_STEP_37

_symmetry_space_group_name_H-M 'P 1'
_cell_length_a      7.99108892
_cell_length_b      6.03182145
_cell_length_c     13.57057595
_cell_angle_alpha  100.758978
_cell_angle_beta  112.671199
_cell_angle_gamma   86.239352

loop_
_atom_site_label
_atom_site_fract_x
_atom_site_fract_y
_atom_site_fract_z
C1  1.203594916344E-01  4.147033972690E-02  3.912840744138E-01
C2 -1.203594916344E-01 -4.147033972690E-02 -3.912840744138E-01
C3  1.443903600654E-01  1.643897235493E-01  3.215727113518E-01
C4 -1.443903600654E-01 -1.643897235493E-01 -3.215727113518E-01
C5  8.234016468710E-02  7.727510349731E-02  2.062755812525E-01
C6 -8.234016468710E-02 -7.727510349731E-02 -2.062755812525E-01
C7  1.079433321484E-01  1.972097802615E-01  1.337647496707E-01
C8 -1.079433321484E-01 -1.972097802615E-01 -1.337647496707E-01
C9  4.578818668563E-02  1.096254189168E-01  2.058329545043E-02
C10 -4.578818668563E-02 -1.096254189168E-01 -2.058329545043E-02
C11  7.062690196434E-02  2.299169404383E-01 -5.362216630371E-02
C12 -7.062690196434E-02 -2.299169404383E-01  5.362216630371E-02
C13 -8.403297354293E-03 -1.423928781050E-01  1.651782546120E-01
C14  8.403297354293E-03  1.423928781050E-01 -1.651782546120E-01
C15 -3.213168319013E-02 -2.644306032660E-01  2.412122855974E-01
C16  3.213168319013E-02  2.644306032660E-01 -2.412122855974E-01
C17  3.082123693257E-02 -1.762568785073E-01  3.504755417498E-01
C18 -3.082123693257E-02  1.762568785073E-01 -3.504755417498E-01
H19  1.694527175705E-01  1.098292617840E-01  4.797283939244E-01
H20 -1.694527175705E-01 -1.098292617840E-01 -4.797283939244E-01
H21  2.112300876181E-01  3.333603683529E-01  3.521190383492E-01
H22 -2.112300876181E-01 -3.333603683529E-01 -3.521190383492E-01
H23  1.783565077042E-01  3.640192991505E-01  1.650629458590E-01
H24 -1.783565077042E-01 -3.640192991505E-01 -1.650629458590E-01
H25  1.403976672592E-01  3.970668653383E-01 -2.227225545158E-02
H26 -1.403976672592E-01 -3.970668653383E-01  2.227225545158E-02
H27 -1.018339243126E-01 -4.312623393079E-01  2.096936089083E-01
H28  1.018339243126E-01  4.312623393079E-01 -2.096936089083E-01
H29  1.182690448147E-02 -2.728868381188E-01  4.077419557771E-01
H30 -1.182690448147E-02  2.728868381188E-01 -4.077419557771E-01
C31 -4.538818324082E-01 -4.234669440584E-01  3.807465822782E-01
C32  4.538818324082E-01  4.234669440584E-01 -3.807465822782E-01
C33  4.858127303697E-01 -3.081011441436E-01  2.949201509273E-01
C34 -4.858127303697E-01  3.081011441436E-01 -2.949201509273E-01
C35 -4.986553344506E-01 -4.061881568112E-01  1.929987039235E-01
C36  4.986553344506E-01  4.061881568112E-01 -1.929987039235E-01
C37  4.425459575355E-01 -2.913744143760E-01  1.046276600776E-01
C38 -4.425459575355E-01  2.913744143760E-01 -1.046276600776E-01
C39  4.602524472177E-01 -3.880062112635E-01  5.124646781460E-03
C40 -4.602524472177E-01  3.880062112635E-01 -5.124646781460E-03
C41  4.015152498113E-01 -2.727360380001E-01 -8.483579556232E-02
C42 -4.015152498113E-01  2.727360380001E-01  8.483579556232E-02
C43 -4.188441726891E-01  3.699592552841E-01  1.828687247362E-01
C44  4.188441726891E-01 -3.699592552841E-01 -1.828687247362E-01
C45 -3.568674565753E-01  2.556644579418E-01  2.754291316651E-01
C46  3.568674565753E-01 -2.556644579418E-01 -2.754291316651E-01
C47 -3.740275593915E-01  3.556053344822E-01  3.709548945187E-01
C48  3.740275593915E-01 -3.556053344822E-01 -3.709548945187E-01
H49 -4.658536906567E-01 -3.454285676179E-01  4.587247874968E-01
H50  4.658536906567E-01  3.454285676179E-01 -4.587247874968E-01
H51  4.249677563808E-01 -1.377660234312E-01  3.028639111614E-01
H52 -4.249677563808E-01  1.377660234312E-01 -3.028639111614E-01
H53  3.811749479892E-01 -1.210654123252E-01  1.123769116725E-01
H54 -3.811749479892E-01  1.210654123252E-01 -1.123769116725E-01
H55  3.399706259905E-01 -1.025085001414E-01 -7.707959429088E-02
H56 -3.399706259905E-01  1.025085001414E-01  7.707959429088E-02
H57 -2.941980846533E-01  8.629018154969E-02  2.680480009242E-01
H58  2.941980846533E-01 -8.629018154969E-02 -2.680480009242E-01
H59 -3.255868682773E-01  2.668015705642E-01  4.417171419805E-01
H60  3.255868682773E-01 -2.668015705642E-01 -4.417171419805E-01


#===END

data_OPT_STEP_38

_symmetry_space_group_name_H-M 'P 1'
_cell_length_a      7.99459112
_cell_length_b      6.02967006
_cell_length_c     13.57020146
_cell_angle_alpha  100.744654
_cell_angle_beta  112.675142
_cell_angle_gamma   86.245618

loop_
_atom_site_label
_atom_site_fract_x
_atom_site_fract_y
_atom_site_fract_z
C1  1.203485743559E-01  4.152473927385E-02  3.913025209452E-01
C2 -1.203485743559E-01 -4.152473927385E-02 -3.913025209452E-01
C3  1.443951815458E-01  1.644557940835E-01  3.215730611316E-01
C4 -1.443951815458E-01 -1.644557940835E-01 -3.215730611316E-01
C5  8.242106584484E-02  7.725428413836E-02  2.062860076909E-01
C6 -8.242106584484E-02 -7.725428413836E-02 -2.062860076909E-01
C7  1.079821753705E-01  1.972262003750E-01  1.337532227411E-01
C8 -1.079821753705E-01 -1.972262003750E-01 -1.337532227411E-01
C9  4.577226567908E-02  1.096567775880E-01  2.057033931521E-02
C10 -4.577226567908E-02 -1.096567775880E-01 -2.057033931521E-02
C11  7.062258285652E-02  2.299592171482E-01 -5.365144706227E-02
C12 -7.062258285652E-02 -2.299592171482E-01  5.365144706227E-02
C13 -8.344320955999E-03 -1.424460536621E-01  1.652094772518E-01
C14  8.344320955999E-03  1.424460536621E-01 -1.652094772518E-01
C15 -3.208618536758E-02 -2.644885377814E-01  2.412619821875E-01
C16  3.208618536758E-02  2.644885377814E-01 -2.412619821875E-01
C17  3.083604609972E-02 -1.762694474377E-01  3.505193311776E-01
C18 -3.083604609972E-02  1.762694474377E-01 -3.505193311776E-01
H19  1.694519411169E-01  1.098928836685E-01  4.797454032246E-01
H20 -1.694519411169E-01 -1.098928836685E-01 -4.797454032246E-01
H21  2.112745364299E-01  3.334467746958E-01  3.520922481340E-01
H22 -2.112745364299E-01 -3.334467746958E-01 -3.520922481340E-01
H23  1.783967842489E-01  3.640653936778E-01  1.650348656484E-01
H24 -1.783967842489E-01 -3.640653936778E-01 -1.650348656484E-01
H25  1.403703906526E-01  3.971586569934E-01 -2.231929789977E-02
H26 -1.403703906526E-01 -3.971586569934E-01  2.231929789977E-02
H27 -1.017821254507E-01 -4.313544573804E-01  2.097622495531E-01
H28  1.017821254507E-01  4.313544573804E-01 -2.097622495531E-01
H29  1.175775185701E-02 -2.728577512454E-01  4.077959441568E-01
H30 -1.175775185701E-02  2.728577512454E-01 -4.077959441568E-01
C31 -4.538385518571E-01 -4.230762231002E-01  3.807895464154E-01
C32  4.538385518571E-01  4.230762231002E-01 -3.807895464154E-01
C33  4.858582535051E-01 -3.077796655201E-01  2.949095400852E-01
C34 -4.858582535051E-01  3.077796655201E-01 -2.949095400852E-01
C35 -4.985707272241E-01 -4.059553044972E-01  1.930151605190E-01
C36  4.985707272241E-01  4.059553044972E-01 -1.930151605190E-01
C37  4.425766128511E-01 -2.912262276496E-01  1.045788264916E-01
C38 -4.425766128511E-01  2.912262276496E-01 -1.045788264916E-01
C39  4.602706083035E-01 -3.879690615613E-01  5.089232442596E-03
C40 -4.602706083035E-01  3.879690615613E-01 -5.089232442596E-03
C41  4.014762052490E-01 -2.727876043694E-01 -8.493435602140E-02
C42 -4.014762052490E-01  2.727876043694E-01  8.493435602140E-02
C43 -4.187242264146E-01  3.701612924770E-01  1.829687475565E-01
C44  4.187242264146E-01 -3.701612924770E-01 -1.829687475565E-01
C45 -3.567486102464E-01  2.559430002271E-01  2.755834877728E-01
C46  3.567486102464E-01 -2.559430002271E-01 -2.755834877728E-01
C47 -3.739767240503E-01  3.559556576782E-01  3.710746187710E-01
C48  3.739767240503E-01 -3.559556576782E-01 -3.710746187710E-01
H49 -4.658923721156E-01 -3.449369505565E-01  4.587292226940E-01
H50  4.658923721156E-01  3.449369505565E-01 -4.587292226940E-01
H51  4.249199631295E-01 -1.374542871054E-01  3.027780173871E-01
H52 -4.249199631295E-01  1.374542871054E-01 -3.027780173871E-01
H53  3.812823099186E-01 -1.208396750623E-01  1.122886062997E-01
H54 -3.812823099186E-01  1.208396750623E-01 -1.122886062997E-01
H55  3.399156717764E-01 -1.025271922014E-01 -7.723649777249E-02
H56 -3.399156717764E-01  1.025271922014E-01  7.723649777249E-02
H57 -2.941293696656E-01  8.649884765722E-02  2.682488504302E-01
H58  2.941293696656E-01 -8.649884765722E-02 -2.682488504302E-01
H59 -3.255679495484E-01  2.671788793213E-01  4.418670834070E-01
H60  3.255679495484E-01 -2.671788793213E-01 -4.418670834070E-01


#===END

data_OPT_STEP_39

_symmetry_space_group_name_H-M 'P 1'
_cell_length_a      7.99160194
_cell_length_b      6.03160715
_cell_length_c     13.57091627
_cell_angle_alpha  100.777933
_cell_angle_beta  112.675357
_cell_angle_gamma   86.226031

loop_
_atom_site_label
_atom_site_fract_x
_atom_site_fract_y
_atom_site_fract_z
C1  1.203642329629E-01  4.153811756670E-02  3.912925711104E-01
C2 -1.203642329629E-01 -4.153811756670E-02 -3.912925711104E-01
C3  1.444060994129E-01  1.644464343454E-01  3.215960422308E-01
C4 -1.444060994129E-01 -1.644464343454E-01 -3.215960422308E-01
C5  8.240835736911E-02  7.726571062036E-02  2.062934806465E-01
C6 -8.240835736911E-02 -7.726571062036E-02 -2.062934806465E-01
C7  1.079465626062E-01  1.972220663799E-01  1.337871613896E-01
C8 -1.079465626062E-01 -1.972220663799E-01 -1.337871613896E-01
C9  4.569751457757E-02  1.096837449346E-01  2.058755551827E-02
C10 -4.569751457757E-02 -1.096837449346E-01 -2.058755551827E-02
C11  7.056901607379E-02  2.299488967477E-01 -5.360259823717E-02
C12 -7.056901607379E-02 -2.299488967477E-01  5.360259823717E-02
C13 -8.404144408973E-03 -1.423740179501E-01  1.651654800995E-01
C14  8.404144408973E-03  1.423740179501E-01 -1.651654800995E-01
C15 -3.221558785401E-02 -2.643417698700E-01  2.411774586797E-01
C16  3.221558785401E-02  2.643417698700E-01 -2.411774586797E-01
C17  3.081488633577E-02 -1.761949060982E-01  3.504565974370E-01
C18 -3.081488633577E-02  1.761949060982E-01 -3.504565974370E-01
H19  1.693106405688E-01  1.099887197011E-01  4.797352601882E-01
H20 -1.693106405688E-01 -1.099887197011E-01 -4.797352601882E-01
H21  2.111313651888E-01  3.335045567471E-01  3.521249200114E-01
H22 -2.111313651888E-01 -3.335045567471E-01 -3.521249200114E-01
H23  1.783963185418E-01  3.640136148055E-01  1.651060734330E-01
H24 -1.783963185418E-01 -3.640136148055E-01 -1.651060734330E-01
H25  1.403380277368E-01  3.971094873120E-01 -2.223295877166E-02
H26 -1.403380277368E-01 -3.971094873120E-01  2.223295877166E-02
H27 -1.019465215708E-01 -4.311632007031E-01  2.096447673680E-01
H28  1.019465215708E-01  4.311632007031E-01 -2.096447673680E-01
H29  1.175253809858E-02 -2.727680809965E-01  4.077113865121E-01
H30 -1.175253809858E-02  2.727680809965E-01 -4.077113865121E-01
C31 -4.541129789021E-01 -4.229624580147E-01  3.807452115931E-01
C32  4.541129789021E-01  4.229624580147E-01 -3.807452115931E-01
C33  4.857200894383E-01 -3.076589904272E-01  2.949092333375E-01
C34 -4.857200894383E-01  3.076589904272E-01 -2.949092333375E-01
C35 -4.986555320923E-01 -4.058592592408E-01  1.930111051450E-01
C36  4.986555320923E-01  4.058592592408E-01 -1.930111051450E-01
C37  4.424812428102E-01 -2.912130064147E-01  1.045859093843E-01
C38 -4.424812428102E-01  2.912130064147E-01 -1.045859093843E-01
C39  4.602415494983E-01 -3.879937887062E-01  5.098660718303E-03
C40 -4.602415494983E-01  3.879937887062E-01 -5.098660718303E-03
C41  4.015373094884E-01 -2.728411011368E-01 -8.489364786010E-02
C42 -4.015373094884E-01  2.728411011368E-01  8.489364786010E-02
C43 -4.188447610691E-01  3.702546911292E-01  1.829275646912E-01
C44  4.188447610691E-01 -3.702546911292E-01 -1.829275646912E-01
C45 -3.569762299604E-01  2.560573842153E-01  2.755041262358E-01
C46  3.569762299604E-01 -2.560573842153E-01 -2.755041262358E-01
C47 -3.742578617265E-01  3.560991533582E-01  3.709922944599E-01
C48  3.742578617265E-01 -3.560991533582E-01 -3.709922944599E-01
H49 -4.660952885522E-01 -3.447323121435E-01  4.587117823839E-01
H50  4.660952885522E-01  3.447323121435E-01 -4.587117823839E-01
H51  4.247078954232E-01 -1.373799761482E-01  3.027890533456E-01
H52 -4.247078954232E-01  1.373799761482E-01 -3.027890533456E-01
H53  3.812460208740E-01 -1.208061642139E-01  1.123326363890E-01
H54 -3.812460208740E-01  1.208061642139E-01 -1.123326363890E-01
H55  3.401328668913E-01 -1.025064759621E-01 -7.713887185101E-02
H56 -3.401328668913E-01  1.025064759621E-01  7.713887185101E-02
H57 -2.944464225726E-01  8.657674650716E-02  2.681271746499E-01
H58  2.944464225726E-01 -8.657674650716E-02 -2.681271746499E-01
H59 -3.259716833999E-01  2.673042721776E-01  4.417401071152E-01
H60  3.259716833999E-01 -2.673042721776E-01 -4.417401071152E-01


#===END

data_OPT_STEP_40

_symmetry_space_group_name_H-M 'P 1'
_cell_length_a      7.99421593
_cell_length_b      6.02991306
_cell_length_c     13.57027588
_cell_angle_alpha  100.751949
_cell_angle_beta  112.676641
_cell_angle_gamma   86.240444

loop_
_atom_site_label
_atom_site_fract_x
_atom_site_fract_y
_atom_site_fract_z
C1  1.203568199740E-01  4.152877328756E-02  3.913064561651E-01
C2 -1.203568199740E-01 -4.152877328756E-02 -3.913064561651E-01
C3  1.444050478817E-01  1.644560297640E-01  3.215843426975E-01
C4 -1.444050478817E-01 -1.644560297640E-01 -3.215843426975E-01
C5  8.241427348596E-02  7.726355967355E-02  2.062908061929E-01
C6 -8.241427348596E-02 -7.726355967355E-02 -2.062908061929E-01
C7  1.079650111437E-01  1.972364903611E-01  1.337621759151E-01
C8 -1.079650111437E-01 -1.972364903611E-01 -1.337621759151E-01
C9  4.574225738444E-02  1.096733553620E-01  2.057331268717E-02
C10 -4.574225738444E-02 -1.096733553620E-01 -2.057331268717E-02
C11  7.059916084726E-02  2.299680089970E-01 -5.364245367802E-02
C12 -7.059916084726E-02 -2.299680089970E-01  5.364245367802E-02
C13 -8.362324836043E-03 -1.424280839888E-01  1.652019636412E-01
C14  8.362324836043E-03  1.424280839888E-01 -1.652019636412E-01
C15 -3.212924560308E-02 -2.644498255054E-01  2.412448183417E-01
C16  3.212924560308E-02  2.644498255054E-01 -2.412448183417E-01
C17  3.082730113119E-02 -1.762507144494E-01  3.505094856388E-01
C18 -3.082730113119E-02  1.762507144494E-01 -3.505094856388E-01
H19  1.694075051721E-01  1.099263705281E-01  4.797494571783E-01
H20 -1.694075051721E-01 -1.099263705281E-01 -4.797494571783E-01
H21  2.112307328464E-01  3.334782526388E-01  3.521033791038E-01
H22 -2.112307328464E-01 -3.334782526388E-01 -3.521033791038E-01
H23  1.783914703973E-01  3.640663369003E-01  1.650529293360E-01
H24 -1.783914703973E-01 -3.640663369003E-01 -1.650529293360E-01
H25  1.403490388061E-01  3.971637939020E-01 -2.230218259685E-02
H26 -1.403490388061E-01 -3.971637939020E-01  2.230218259685E-02
H27 -1.018378977795E-01 -4.313066845910E-01  2.097376835342E-01
H28  1.018378977795E-01  4.313066845910E-01 -2.097376835342E-01
H29  1.175936328264E-02 -2.728407719582E-01  4.077827909221E-01
H30 -1.175936328264E-02  2.728407719582E-01 -4.077827909221E-01
C31 -4.539375359840E-01 -4.230322907800E-01  3.807769785988E-01
C32  4.539375359840E-01  4.230322907800E-01 -3.807769785988E-01
C33  4.858044491806E-01 -3.077307059879E-01  2.949048780834E-01
C34 -4.858044491806E-01  3.077307059879E-01 -2.949048780834E-01
C35 -4.985987814888E-01 -4.059154553756E-01  1.930135051876E-01
C36  4.985987814888E-01  4.059154553756E-01 -1.930135051876E-01
C37  4.425417483659E-01 -2.912129954699E-01  1.045737905043E-01
C38 -4.425417483659E-01  2.912129954699E-01 -1.045737905043E-01
C39  4.602533214841E-01 -3.879767824550E-01  5.085994842909E-03
C40 -4.602533214841E-01  3.879767824550E-01 -5.085994842909E-03
C41  4.014926465279E-01 -2.728004506673E-01 -8.493300654966E-02
C42 -4.014926465279E-01  2.728004506673E-01  8.493300654966E-02
C43 -4.187667432106E-01  3.701903803446E-01  1.829635658877E-01
C44  4.187667432106E-01 -3.701903803446E-01 -1.829635658877E-01
C45 -3.568231644520E-01  2.559792306450E-01  2.755727693560E-01
C46  3.568231644520E-01 -2.559792306450E-01 -2.755727693560E-01
C47 -3.740692669653E-01  3.560067039388E-01  3.710607491273E-01
C48  3.740692669653E-01 -3.560067039388E-01 -3.710607491273E-01
H49 -4.659648694909E-01 -3.448565634589E-01  4.587241631909E-01
H50  4.659648694909E-01  3.448565634589E-01 -4.587241631909E-01
H51  4.248404747811E-01 -1.374149471552E-01  3.027701447310E-01
H52 -4.248404747811E-01  1.374149471552E-01 -3.027701447310E-01
H53  3.812632505511E-01 -1.208150327682E-01  1.122880494254E-01
H54 -3.812632505511E-01  1.208150327682E-01 -1.122880494254E-01
H55  3.399859434343E-01 -1.025077596440E-01 -7.722266965422E-02
H56 -3.399859434343E-01  1.025077596440E-01  7.722266965422E-02
H57 -2.942266821941E-01  8.652012309043E-02  2.682327254966E-01
H58  2.942266821941E-01 -8.652012309043E-02 -2.682327254966E-01
H59 -3.256997407104E-01  2.672223076730E-01  4.418436521255E-01
H60  3.256997407104E-01 -2.672223076730E-01 -4.418436521255E-01


#===END

data_OPT_STEP_41

_symmetry_space_group_name_H-M 'P 1'
_cell_length_a      7.99434360
_cell_length_b      6.02983876
_cell_length_c     13.57013858
_cell_angle_alpha  100.751535
_cell_angle_beta  112.677016
_cell_angle_gamma   86.240608

loop_
_atom_site_label
_atom_site_fract_x
_atom_site_fract_y
_atom_site_fract_z
C1  1.203535400305E-01  4.154639052639E-02  3.913123286509E-01
C2 -1.203535400305E-01 -4.154639052639E-02 -3.913123286509E-01
C3  1.444092470108E-01  1.644658487085E-01  3.215896286243E-01
C4 -1.444092470108E-01 -1.644658487085E-01 -3.215896286243E-01
C5  8.240398278020E-02  7.727776995333E-02  2.062927884621E-01
C6 -8.240398278020E-02 -7.727776995333E-02 -2.062927884621E-01
C7  1.079710187370E-01  1.972400388473E-01  1.337641148064E-01
C8 -1.079710187370E-01 -1.972400388473E-01 -1.337641148064E-01
C9  4.574448767200E-02  1.096740177156E-01  2.057297536467E-02
C10 -4.574448767200E-02 -1.096740177156E-01 -2.057297536467E-02
C11  7.059263555261E-02  2.299720757810E-01 -5.364575377713E-02
C12 -7.059263555261E-02 -2.299720757810E-01  5.364575377713E-02
C13 -8.353490834717E-03 -1.424284705734E-01  1.652064918626E-01
C14  8.353490834717E-03  1.424284705734E-01 -1.652064918626E-01
C15 -3.211092892642E-02 -2.644551363302E-01  2.412518828586E-01
C16  3.211092892642E-02  2.644551363302E-01 -2.412518828586E-01
C17  3.082904479224E-02 -1.762382932868E-01  3.505169402719E-01
C18 -3.082904479224E-02  1.762382932868E-01 -3.505169402719E-01
H19  1.693996719177E-01  1.099483720154E-01  4.797557751125E-01
H20 -1.693996719177E-01 -1.099483720154E-01 -4.797557751125E-01
H21  2.112230647183E-01  3.334986421714E-01  3.521039057945E-01
H22 -2.112230647183E-01 -3.334986421714E-01 -3.521039057945E-01
H23  1.783921687671E-01  3.640756117001E-01  1.650540504400E-01
H24 -1.783921687671E-01 -3.640756117001E-01 -1.650540504400E-01
H25  1.403234386961E-01  3.971800738245E-01 -2.230872629352E-02
H26 -1.403234386961E-01 -3.971800738245E-01  2.230872629352E-02
H27 -1.018195915105E-01 -4.313134397420E-01  2.097471896316E-01
H28  1.018195915105E-01  4.313134397420E-01 -2.097471896316E-01
H29  1.177562468837E-02 -2.728327048856E-01  4.077943138625E-01
H30 -1.177562468837E-02  2.728327048856E-01 -4.077943138625E-01
C31 -4.539641682138E-01 -4.230349435875E-01  3.807744596597E-01
C32  4.539641682138E-01  4.230349435875E-01 -3.807744596597E-01
C33  4.857840881594E-01 -3.077271905922E-01  2.949012183550E-01
C34 -4.857840881594E-01  3.077271905922E-01 -2.949012183550E-01
C35 -4.985973140140E-01 -4.059028595128E-01  1.930154741233E-01
C36  4.985973140140E-01  4.059028595128E-01 -1.930154741233E-01
C37  4.425569245317E-01 -2.911961719158E-01  1.045771290468E-01
C38 -4.425569245317E-01  2.911961719158E-01 -1.045771290468E-01
C39  4.602485784354E-01 -3.879779415962E-01  5.083997090003E-03
C40 -4.602485784354E-01  3.879779415962E-01 -5.083997090003E-03
C41  4.014968750421E-01 -2.728000205941E-01 -8.493521001555E-02
C42 -4.014968750421E-01  2.728000205941E-01  8.493521001555E-02
C43 -4.187778615547E-01  3.701925935014E-01  1.829645603404E-01
C44  4.187778615547E-01 -3.701925935014E-01 -1.829645603404E-01
C45 -3.568366986501E-01  2.559803806751E-01  2.755737512640E-01
C46  3.568366986501E-01 -2.559803806751E-01 -2.755737512640E-01
C47 -3.740783262015E-01  3.560106450925E-01  3.710638283358E-01
C48  3.740783262015E-01 -3.560106450925E-01 -3.710638283358E-01
H49 -4.659795698579E-01 -3.448610787642E-01  4.587252290152E-01
H50  4.659795698579E-01  3.448610787642E-01 -4.587252290152E-01
H51  4.248468920752E-01 -1.373956163628E-01  3.027717958458E-01
H52 -4.248468920752E-01  1.373956163628E-01 -3.027717958458E-01
H53  3.812568865371E-01 -1.208063831320E-01  1.122850134292E-01
H54 -3.812568865371E-01  1.208063831320E-01 -1.122850134292E-01
H55  3.399987770018E-01 -1.025011023660E-01 -7.722412517264E-02
H56 -3.399987770018E-01  1.025011023660E-01  7.722412517264E-02
H57 -2.942106422939E-01  8.653318630125E-02  2.682416352320E-01
H58  2.942106422939E-01 -8.653318630125E-02 -2.682416352320E-01
H59 -3.256980152128E-01  2.672278769896E-01  4.418493872704E-01
H60  3.256980152128E-01 -2.672278769896E-01 -4.418493872704E-01


#===END

data_OPT_STEP_42

_symmetry_space_group_name_H-M 'P 1'
_cell_length_a      7.99434360
_cell_length_b      6.02983876
_cell_length_c     13.57013858
_cell_angle_alpha  100.751535
_cell_angle_beta  112.677016
_cell_angle_gamma   86.240608

loop_
_atom_site_label
_atom_site_fract_x
_atom_site_fract_y
_atom_site_fract_z
C1  1.203535400305E-01  4.154639052639E-02  3.913123286509E-01
C2 -1.203535400305E-01 -4.154639052639E-02 -3.913123286509E-01
C3  1.444092470108E-01  1.644658487085E-01  3.215896286243E-01
C4 -1.444092470108E-01 -1.644658487085E-01 -3.215896286243E-01
C5  8.240398278020E-02  7.727776995333E-02  2.062927884621E-01
C6 -8.240398278020E-02 -7.727776995333E-02 -2.062927884621E-01
C7  1.079710187370E-01  1.972400388473E-01  1.337641148064E-01
C8 -1.079710187370E-01 -1.972400388473E-01 -1.337641148064E-01
C9  4.574448767200E-02  1.096740177156E-01  2.057297536467E-02
C10 -4.574448767200E-02 -1.096740177156E-01 -2.057297536467E-02
C11  7.059263555261E-02  2.299720757810E-01 -5.364575377713E-02
C12 -7.059263555261E-02 -2.299720757810E-01  5.364575377713E-02
C13 -8.353490834717E-03 -1.424284705734E-01  1.652064918626E-01
C14  8.353490834717E-03  1.424284705734E-01 -1.652064918626E-01
C15 -3.211092892642E-02 -2.644551363302E-01  2.412518828586E-01
C16  3.211092892642E-02  2.644551363302E-01 -2.412518828586E-01
C17  3.082904479224E-02 -1.762382932868E-01  3.505169402719E-01
C18 -3.082904479224E-02  1.762382932868E-01 -3.505169402719E-01
H19  1.693996719177E-01  1.099483720154E-01  4.797557751125E-01
H20 -1.693996719177E-01 -1.099483720154E-01 -4.797557751125E-01
H21  2.112230647183E-01  3.334986421714E-01  3.521039057945E-01
H22 -2.112230647183E-01 -3.334986421714E-01 -3.521039057945E-01
H23  1.783921687671E-01  3.640756117001E-01  1.650540504400E-01
H24 -1.783921687671E-01 -3.640756117001E-01 -1.650540504400E-01
H25  1.403234386961E-01  3.971800738245E-01 -2.230872629352E-02
H26 -1.403234386961E-01 -3.971800738245E-01  2.230872629352E-02
H27 -1.018195915105E-01 -4.313134397420E-01  2.097471896316E-01
H28  1.018195915105E-01  4.313134397420E-01 -2.097471896316E-01
H29  1.177562468837E-02 -2.728327048856E-01  4.077943138625E-01
H30 -1.177562468837E-02  2.728327048856E-01 -4.077943138625E-01
C31 -4.539641682138E-01 -4.230349435875E-01  3.807744596597E-01
C32  4.539641682138E-01  4.230349435875E-01 -3.807744596597E-01
C33  4.857840881594E-01 -3.077271905922E-01  2.949012183550E-01
C34 -4.857840881594E-01  3.077271905922E-01 -2.949012183550E-01
C35 -4.985973140140E-01 -4.059028595128E-01  1.930154741233E-01
C36  4.985973140140E-01  4.059028595128E-01 -1.930154741233E-01
C37  4.425569245317E-01 -2.911961719158E-01  1.045771290468E-01
C38 -4.425569245317E-01  2.911961719158E-01 -1.045771290468E-01
C39  4.602485784354E-01 -3.879779415962E-01  5.083997090003E-03
C40 -4.602485784354E-01  3.879779415962E-01 -5.083997090003E-03
C41  4.014968750421E-01 -2.728000205941E-01 -8.493521001555E-02
C42 -4.014968750421E-01  2.728000205941E-01  8.493521001555E-02
C43 -4.187778615547E-01  3.701925935014E-01  1.829645603404E-01
C44  4.187778615547E-01 -3.701925935014E-01 -1.829645603404E-01
C45 -3.568366986501E-01  2.559803806751E-01  2.755737512640E-01
C46  3.568366986501E-01 -2.559803806751E-01 -2.755737512640E-01
C47 -3.740783262015E-01  3.560106450925E-01  3.710638283358E-01
C48  3.740783262015E-01 -3.560106450925E-01 -3.710638283358E-01
H49 -4.659795698579E-01 -3.448610787642E-01  4.587252290152E-01
H50  4.659795698579E-01  3.448610787642E-01 -4.587252290152E-01
H51  4.248468920752E-01 -1.373956163628E-01  3.027717958458E-01
H52 -4.248468920752E-01  1.373956163628E-01 -3.027717958458E-01
H53  3.812568865371E-01 -1.208063831320E-01  1.122850134292E-01
H54 -3.812568865371E-01  1.208063831320E-01 -1.122850134292E-01
H55  3.399987770018E-01 -1.025011023660E-01 -7.722412517264E-02
H56 -3.399987770018E-01  1.025011023660E-01  7.722412517264E-02
H57 -2.942106422939E-01  8.653318630125E-02  2.682416352320E-01
H58  2.942106422939E-01 -8.653318630125E-02 -2.682416352320E-01
H59 -3.256980152128E-01  2.672278769896E-01  4.418493872704E-01
H60  3.256980152128E-01 -2.672278769896E-01 -4.418493872704E-01


#===END
