###############################################################################
#
#                    CRYSTAL17 CIF FILE
#
###############################################################################

data_OPT_STEP_1

_symmetry_space_group_name_H-M 'P 1'
_cell_length_a      7.90000000
_cell_length_b      6.06000000
_cell_length_c     16.01000000
_cell_angle_alpha  101.900002
_cell_angle_beta  112.599998
_cell_angle_gamma   85.800003

loop_
_atom_site_label
_atom_site_fract_x
_atom_site_fract_y
_atom_site_fract_z
C1  1.280592547558E-01  4.609707220522E-02  4.062578114848E-01
H2  1.740426326095E-01  1.164913895498E-01  4.793726106988E-01
C3  1.591095336811E-01  1.603301336148E-01  3.486348772798E-01
C4  3.433571479720E-02 -1.664902778632E-01  3.713039295417E-01
H5  2.272564848977E-01  3.233646951237E-01  3.744095249380E-01
C6  9.904906713273E-02  7.080668260641E-02  2.516843007923E-01
H7  1.078540597347E-02 -2.549795916053E-01  4.182742611951E-01
C8 -2.551591000536E-02 -2.580436079522E-01  2.797591528047E-01
C9  1.285268752778E-01  1.833402153003E-01  1.914399952368E-01
C10  3.734013395591E-03 -1.444506158255E-01  2.163002699471E-01
H11 -9.595606985317E-02 -4.194043721181E-01  2.532303966968E-01
H12  1.992341045989E-01  3.446165939634E-01  2.178312138398E-01
C13  6.608094070332E-02  9.494263886039E-02  9.584327037478E-02
C14 -5.749881825332E-02 -2.335963503409E-01  1.227715872364E-01
C15  9.330846420372E-02  2.083206703131E-01  3.428339802354E-02
C16 -2.997063063934E-02 -1.201332369254E-01  6.039730989772E-02
H17 -1.281890043291E-01 -3.949591721063E-01  9.642029446385E-02
H18  1.640361261031E-01  3.695810543553E-01  6.051603181899E-02
C19  2.997063063934E-02  1.201332369254E-01 -6.039730989772E-02
C20 -9.330846420372E-02 -2.083206703131E-01 -3.428339802354E-02
C21  5.749881825332E-02  2.335963503409E-01 -1.227715872364E-01
C22 -6.608094070332E-02 -9.494263886039E-02 -9.584327037478E-02
H23 -1.640361261031E-01 -3.695810543553E-01 -6.051603181899E-02
H24  1.281890043291E-01  3.949591721063E-01 -9.642029446385E-02
C25 -3.734013395591E-03  1.444506158255E-01 -2.163002699471E-01
C26 -1.285268752778E-01 -1.833402153003E-01 -1.914399952368E-01
C27  2.551591000536E-02  2.580436079522E-01 -2.797591528047E-01
C28 -9.904906713273E-02 -7.080668260641E-02 -2.516843007923E-01
H29 -1.992341045989E-01 -3.446165939634E-01 -2.178312138398E-01
H30  9.595606985317E-02  4.194043721181E-01 -2.532303966968E-01
C31 -3.433571479720E-02  1.664902778632E-01 -3.713039295417E-01
C32 -1.591095336811E-01 -1.603301336148E-01 -3.486348772798E-01
H33 -1.078540597347E-02  2.549795916053E-01 -4.182742611951E-01
C34 -1.280592547558E-01 -4.609707220522E-02 -4.062578114848E-01
H35 -2.272564848977E-01 -3.233646951237E-01 -3.744095249380E-01
H36 -1.740426326095E-01 -1.164913895498E-01 -4.793726106988E-01
C37 -4.480015711813E-01 -4.279744271833E-01  3.968571270813E-01
H38 -4.624614712106E-01 -3.512546788597E-01  4.611355124879E-01
C39  4.994744936442E-01 -3.125431909477E-01  3.265849946398E-01
C40 -3.728352745291E-01  3.508837008197E-01  3.871311939444E-01
H41  4.430968103953E-01 -1.446197352028E-01  3.342525993706E-01
C42 -4.832782896024E-01 -4.104644872399E-01  2.408427711478E-01
H43 -3.306572344473E-01  2.630008135878E-01  4.443595104080E-01
C44 -3.527454590853E-01  2.515906169911E-01  3.072661685375E-01
C45  4.627826589313E-01 -2.978170569047E-01  1.678943172028E-01
C46 -4.074415751826E-01  3.650571871609E-01  2.308661320399E-01
H47 -2.943007726491E-01  8.484680010773E-02  3.000855669421E-01
H48  4.054234303159E-01 -1.303708005244E-01  1.753325456125E-01
C49  4.801528889324E-01 -3.953921957614E-01  8.361962537873E-02
C50 -3.890003007486E-01  2.674918258189E-01  1.486843096054E-01
C51  4.255406164641E-01 -2.827649698182E-01  9.577592997850E-03
C52 -4.434326199434E-01  3.802355562561E-01  7.369693399735E-02
H53 -3.313144642820E-01  1.002007654577E-01  1.413693068834E-01
H54  3.679142906265E-01 -1.154642360166E-01  1.699991920048E-02
C55  4.434326199434E-01 -3.802355562561E-01 -7.369693399735E-02
C56 -4.255406164641E-01  2.827649698182E-01 -9.577592997850E-03
C57  3.890003007486E-01 -2.674918258189E-01 -1.486843096054E-01
C58 -4.801528889324E-01  3.953921957614E-01 -8.361962537873E-02
H59 -3.679142906265E-01  1.154642360166E-01 -1.699991920048E-02
H60  3.313144642820E-01 -1.002007654577E-01 -1.413693068834E-01
C61  4.074415751826E-01 -3.650571871609E-01 -2.308661320399E-01
C62 -4.627826589313E-01  2.978170569047E-01 -1.678943172028E-01
C63  3.527454590853E-01 -2.515906169911E-01 -3.072661685375E-01
C64  4.832782896024E-01  4.104644872399E-01 -2.408427711478E-01
H65 -4.054234303159E-01  1.303708005244E-01 -1.753325456125E-01
H66  2.943007726491E-01 -8.484680010773E-02 -3.000855669421E-01
C67  3.728352745291E-01 -3.508837008197E-01 -3.871311939444E-01
C68 -4.994744936442E-01  3.125431909477E-01 -3.265849946398E-01
H69  3.306572344473E-01 -2.630008135878E-01 -4.443595104080E-01
C70  4.480015711813E-01  4.279744271833E-01 -3.968571270813E-01
H71 -4.430968103953E-01  1.446197352028E-01 -3.342525993706E-01
H72  4.624614712106E-01  3.512546788597E-01 -4.611355124879E-01


#===END

data_OPT_STEP_2

_symmetry_space_group_name_H-M 'P 1'
_cell_length_a      7.90000000
_cell_length_b      6.06000000
_cell_length_c     16.01000000
_cell_angle_alpha  101.900002
_cell_angle_beta  112.599998
_cell_angle_gamma   85.800003

loop_
_atom_site_label
_atom_site_fract_x
_atom_site_fract_y
_atom_site_fract_z
C1  1.280592547558E-01  4.609707220522E-02  4.062578114848E-01
H2  1.740426326095E-01  1.164913895498E-01  4.793726106988E-01
C3  1.591095336811E-01  1.603301336148E-01  3.486348772798E-01
C4  3.433571479720E-02 -1.664902778632E-01  3.713039295417E-01
H5  2.272564848977E-01  3.233646951237E-01  3.744095249380E-01
C6  9.904906713273E-02  7.080668260641E-02  2.516843007923E-01
H7  1.078540597347E-02 -2.549795916053E-01  4.182742611951E-01
C8 -2.551591000536E-02 -2.580436079522E-01  2.797591528047E-01
C9  1.285268752778E-01  1.833402153003E-01  1.914399952368E-01
C10  3.734013395591E-03 -1.444506158255E-01  2.163002699471E-01
H11 -9.595606985317E-02 -4.194043721181E-01  2.532303966968E-01
H12  1.992341045989E-01  3.446165939634E-01  2.178312138398E-01
C13  6.608094070332E-02  9.494263886039E-02  9.584327037478E-02
C14 -5.749881825332E-02 -2.335963503409E-01  1.227715872364E-01
C15  9.330846420372E-02  2.083206703131E-01  3.428339802354E-02
C16 -2.997063063934E-02 -1.201332369254E-01  6.039730989772E-02
H17 -1.281890043291E-01 -3.949591721063E-01  9.642029446385E-02
H18  1.640361261031E-01  3.695810543553E-01  6.051603181899E-02
C19  2.997063063934E-02  1.201332369254E-01 -6.039730989772E-02
C20 -9.330846420372E-02 -2.083206703131E-01 -3.428339802354E-02
C21  5.749881825332E-02  2.335963503409E-01 -1.227715872364E-01
C22 -6.608094070332E-02 -9.494263886039E-02 -9.584327037478E-02
H23 -1.640361261031E-01 -3.695810543553E-01 -6.051603181899E-02
H24  1.281890043291E-01  3.949591721063E-01 -9.642029446385E-02
C25 -3.734013395591E-03  1.444506158255E-01 -2.163002699471E-01
C26 -1.285268752778E-01 -1.833402153003E-01 -1.914399952368E-01
C27  2.551591000536E-02  2.580436079522E-01 -2.797591528047E-01
C28 -9.904906713273E-02 -7.080668260641E-02 -2.516843007923E-01
H29 -1.992341045989E-01 -3.446165939634E-01 -2.178312138398E-01
H30  9.595606985317E-02  4.194043721181E-01 -2.532303966968E-01
C31 -3.433571479720E-02  1.664902778632E-01 -3.713039295417E-01
C32 -1.591095336811E-01 -1.603301336148E-01 -3.486348772798E-01
H33 -1.078540597347E-02  2.549795916053E-01 -4.182742611951E-01
C34 -1.280592547558E-01 -4.609707220522E-02 -4.062578114848E-01
H35 -2.272564848977E-01 -3.233646951237E-01 -3.744095249380E-01
H36 -1.740426326095E-01 -1.164913895498E-01 -4.793726106988E-01
C37 -4.480015711813E-01 -4.279744271833E-01  3.968571270813E-01
H38 -4.624614712106E-01 -3.512546788597E-01  4.611355124879E-01
C39  4.994744936442E-01 -3.125431909477E-01  3.265849946398E-01
C40 -3.728352745291E-01  3.508837008197E-01  3.871311939444E-01
H41  4.430968103953E-01 -1.446197352028E-01  3.342525993706E-01
C42 -4.832782896024E-01 -4.104644872399E-01  2.408427711478E-01
H43 -3.306572344473E-01  2.630008135878E-01  4.443595104080E-01
C44 -3.527454590853E-01  2.515906169911E-01  3.072661685375E-01
C45  4.627826589313E-01 -2.978170569047E-01  1.678943172028E-01
C46 -4.074415751826E-01  3.650571871609E-01  2.308661320399E-01
H47 -2.943007726491E-01  8.484680010773E-02  3.000855669421E-01
H48  4.054234303159E-01 -1.303708005244E-01  1.753325456125E-01
C49  4.801528889324E-01 -3.953921957614E-01  8.361962537873E-02
C50 -3.890003007486E-01  2.674918258189E-01  1.486843096054E-01
C51  4.255406164641E-01 -2.827649698182E-01  9.577592997850E-03
C52 -4.434326199434E-01  3.802355562561E-01  7.369693399735E-02
H53 -3.313144642820E-01  1.002007654577E-01  1.413693068834E-01
H54  3.679142906265E-01 -1.154642360166E-01  1.699991920048E-02
C55  4.434326199434E-01 -3.802355562561E-01 -7.369693399735E-02
C56 -4.255406164641E-01  2.827649698182E-01 -9.577592997850E-03
C57  3.890003007486E-01 -2.674918258189E-01 -1.486843096054E-01
C58 -4.801528889324E-01  3.953921957614E-01 -8.361962537873E-02
H59 -3.679142906265E-01  1.154642360166E-01 -1.699991920048E-02
H60  3.313144642820E-01 -1.002007654577E-01 -1.413693068834E-01
C61  4.074415751826E-01 -3.650571871609E-01 -2.308661320399E-01
C62 -4.627826589313E-01  2.978170569047E-01 -1.678943172028E-01
C63  3.527454590853E-01 -2.515906169911E-01 -3.072661685375E-01
C64  4.832782896024E-01  4.104644872399E-01 -2.408427711478E-01
H65 -4.054234303159E-01  1.303708005244E-01 -1.753325456125E-01
H66  2.943007726491E-01 -8.484680010773E-02 -3.000855669421E-01
C67  3.728352745291E-01 -3.508837008197E-01 -3.871311939444E-01
C68 -4.994744936442E-01  3.125431909477E-01 -3.265849946398E-01
H69  3.306572344473E-01 -2.630008135878E-01 -4.443595104080E-01
C70  4.480015711813E-01  4.279744271833E-01 -3.968571270813E-01
H71 -4.430968103953E-01  1.446197352028E-01 -3.342525993706E-01
H72  4.624614712106E-01  3.512546788597E-01 -4.611355124879E-01


#===END
