###############################################################################
#
#                    CRYSTAL17 CIF FILE
#
###############################################################################

data_OPT_STEP_1

_symmetry_space_group_name_H-M 'P 1'
_cell_length_a      7.90000000
_cell_length_b      6.06000000
_cell_length_c     16.01000000
_cell_angle_alpha  101.900002
_cell_angle_beta  112.599998
_cell_angle_gamma   85.800003

loop_
_atom_site_label
_atom_site_fract_x
_atom_site_fract_y
_atom_site_fract_z
C1  1.249567232094E-01  4.501932361243E-02  4.060088588309E-01
H2  1.704858737058E-01  1.155911494979E-01  4.791154675916E-01
C3  1.500869083791E-01  1.632057343041E-01  3.480080631920E-01
C4  3.851307643129E-02 -1.718408525040E-01  3.714084737641E-01
H5  2.135143964085E-01  3.289091595201E-01  3.736495701970E-01
C6  9.225961097016E-02  7.310293300965E-02  2.511605090630E-01
H7  1.923140812420E-02 -2.635094063297E-01  4.185516461238E-01
C8 -2.062091600049E-02 -2.631724266157E-01  2.798556707011E-01
C9  1.195363980084E-01  1.875371601499E-01  1.908517205659E-01
C10  3.629176087507E-03 -1.461131742740E-01  2.161058709295E-01
H11 -8.674489570763E-02 -4.269709706406E-01  2.535574928320E-01
H12  1.871939050084E-01  3.507361025584E-01  2.171596989245E-01
C13  6.129811032034E-02  9.726939576691E-02  9.553091006723E-02
C14 -5.493428339617E-02 -2.362759068091E-01  1.227168384789E-01
C15  8.825079605808E-02  2.114268275777E-01  3.408883361955E-02
C16 -2.926270719453E-02 -1.211642485805E-01  6.031802342321E-02
H17 -1.214722567704E-01 -4.000395651719E-01  9.654560234233E-02
H18  1.559267392928E-01  3.745870082840E-01  6.022156322422E-02
C19  2.926270719453E-02  1.211642485805E-01 -6.031802342321E-02
C20 -8.825079605808E-02 -2.114268275777E-01 -3.408883361955E-02
C21  5.493428339617E-02  2.362759068091E-01 -1.227168384789E-01
C22 -6.129811032034E-02 -9.726939576691E-02 -9.553091006723E-02
H23 -1.559267392928E-01 -3.745870082840E-01 -6.022156322422E-02
H24  1.214722567704E-01  4.000395651719E-01 -9.654560234233E-02
C25 -3.629176087507E-03  1.461131742740E-01 -2.161058709295E-01
C26 -1.195363980084E-01 -1.875371601499E-01 -1.908517205659E-01
C27  2.062091600049E-02  2.631724266157E-01 -2.798556707011E-01
C28 -9.225961097016E-02 -7.310293300965E-02 -2.511605090630E-01
H29 -1.871939050084E-01 -3.507361025584E-01 -2.171596989245E-01
H30  8.674489570763E-02  4.269709706406E-01 -2.535574928320E-01
C31 -3.851307643129E-02  1.718408525040E-01 -3.714084737641E-01
C32 -1.500869083791E-01 -1.632057343041E-01 -3.480080631920E-01
H33 -1.923140812420E-02  2.635094063297E-01 -4.185516461238E-01
C34 -1.249567232094E-01 -4.501932361243E-02 -4.060088588309E-01
H35 -2.135143964085E-01 -3.289091595201E-01 -3.736495701970E-01
H36 -1.704858737058E-01 -1.155911494979E-01 -4.791154675916E-01
C37 -4.560008182391E-01 -4.333131680519E-01  3.953369793507E-01
H38 -4.767389522382E-01 -3.602791335112E-01  4.584477379793E-01
C39  4.928892441276E-01 -3.168745988587E-01  3.254033037717E-01
C40 -3.727593554124E-01  3.501117395689E-01  3.870501436691E-01
H41  4.312127726839E-01 -1.518995424407E-01  3.321494843064E-01
C42 -4.817323543181E-01 -4.101268605097E-01  2.411667388390E-01
H43 -3.319846733178E-01  2.612219677332E-01  4.439345639848E-01
C44 -3.438836100593E-01  2.557934992159E-01  3.088232540461E-01
C45  4.629909277832E-01 -2.979871262596E-01  1.680210479380E-01
C46 -3.987171124431E-01  3.693624260076E-01  2.324431395793E-01
H47 -2.807047966152E-01  9.168562376889E-02  3.025209649339E-01
H48  4.015322341416E-01 -1.327720278842E-01  1.747385985723E-01
C49  4.816628576556E-01 -3.946953364789E-01  8.396485674234E-02
C50 -3.771851115127E-01  2.736321209915E-01  1.508036764479E-01
C51  4.208963023459E-01 -2.852945298552E-01  8.799713865416E-03
C52 -4.367606518583E-01  3.837566142275E-01  7.489989801662E-02
H53 -3.163679527438E-01  1.080257899781E-01  1.440148246823E-01
H54  3.604469566021E-01 -1.195616845802E-01  1.573386612122E-02
C55  4.367606518583E-01 -3.837566142275E-01 -7.489989801662E-02
C56 -4.208963023459E-01  2.852945298552E-01 -8.799713865416E-03
C57  3.771851115127E-01 -2.736321209915E-01 -1.508036764479E-01
C58 -4.816628576556E-01  3.946953364789E-01 -8.396485674234E-02
H59 -3.604469566021E-01  1.195616845802E-01 -1.573386612122E-02
H60  3.163679527438E-01 -1.080257899781E-01 -1.440148246823E-01
C61  3.987171124431E-01 -3.693624260076E-01 -2.324431395793E-01
C62 -4.629909277832E-01  2.979871262596E-01 -1.680210479380E-01
C63  3.438836100593E-01 -2.557934992159E-01 -3.088232540461E-01
C64  4.817323543181E-01  4.101268605097E-01 -2.411667388390E-01
H65 -4.015322341416E-01  1.327720278842E-01 -1.747385985723E-01
H66  2.807047966152E-01 -9.168562376889E-02 -3.025209649339E-01
C67  3.727593554124E-01 -3.501117395689E-01 -3.870501436691E-01
C68 -4.928892441276E-01  3.168745988587E-01 -3.254033037717E-01
H69  3.319846733178E-01 -2.612219677332E-01 -4.439345639848E-01
C70  4.560008182391E-01  4.333131680519E-01 -3.953369793507E-01
H71 -4.312127726839E-01  1.518995424407E-01 -3.321494843064E-01
H72  4.767389522382E-01  3.602791335112E-01 -4.584477379793E-01


#===END

data_OPT_STEP_2

_symmetry_space_group_name_H-M 'P 1'
_cell_length_a      7.90000000
_cell_length_b      6.06000000
_cell_length_c     16.01000000
_cell_angle_alpha  101.900002
_cell_angle_beta  112.599998
_cell_angle_gamma   85.800003

loop_
_atom_site_label
_atom_site_fract_x
_atom_site_fract_y
_atom_site_fract_z
C1  1.249567232094E-01  4.501932361243E-02  4.060088588309E-01
H2  1.704858737058E-01  1.155911494979E-01  4.791154675916E-01
C3  1.500869083791E-01  1.632057343041E-01  3.480080631920E-01
C4  3.851307643129E-02 -1.718408525040E-01  3.714084737641E-01
H5  2.135143964085E-01  3.289091595201E-01  3.736495701970E-01
C6  9.225961097016E-02  7.310293300965E-02  2.511605090630E-01
H7  1.923140812420E-02 -2.635094063297E-01  4.185516461238E-01
C8 -2.062091600049E-02 -2.631724266157E-01  2.798556707011E-01
C9  1.195363980084E-01  1.875371601499E-01  1.908517205659E-01
C10  3.629176087507E-03 -1.461131742740E-01  2.161058709295E-01
H11 -8.674489570763E-02 -4.269709706406E-01  2.535574928320E-01
H12  1.871939050084E-01  3.507361025584E-01  2.171596989245E-01
C13  6.129811032034E-02  9.726939576691E-02  9.553091006723E-02
C14 -5.493428339617E-02 -2.362759068091E-01  1.227168384789E-01
C15  8.825079605808E-02  2.114268275777E-01  3.408883361955E-02
C16 -2.926270719453E-02 -1.211642485805E-01  6.031802342321E-02
H17 -1.214722567704E-01 -4.000395651719E-01  9.654560234233E-02
H18  1.559267392928E-01  3.745870082840E-01  6.022156322422E-02
C19  2.926270719453E-02  1.211642485805E-01 -6.031802342321E-02
C20 -8.825079605808E-02 -2.114268275777E-01 -3.408883361955E-02
C21  5.493428339617E-02  2.362759068091E-01 -1.227168384789E-01
C22 -6.129811032034E-02 -9.726939576691E-02 -9.553091006723E-02
H23 -1.559267392928E-01 -3.745870082840E-01 -6.022156322422E-02
H24  1.214722567704E-01  4.000395651719E-01 -9.654560234233E-02
C25 -3.629176087507E-03  1.461131742740E-01 -2.161058709295E-01
C26 -1.195363980084E-01 -1.875371601499E-01 -1.908517205659E-01
C27  2.062091600049E-02  2.631724266157E-01 -2.798556707011E-01
C28 -9.225961097016E-02 -7.310293300965E-02 -2.511605090630E-01
H29 -1.871939050084E-01 -3.507361025584E-01 -2.171596989245E-01
H30  8.674489570763E-02  4.269709706406E-01 -2.535574928320E-01
C31 -3.851307643129E-02  1.718408525040E-01 -3.714084737641E-01
C32 -1.500869083791E-01 -1.632057343041E-01 -3.480080631920E-01
H33 -1.923140812420E-02  2.635094063297E-01 -4.185516461238E-01
C34 -1.249567232094E-01 -4.501932361243E-02 -4.060088588309E-01
H35 -2.135143964085E-01 -3.289091595201E-01 -3.736495701970E-01
H36 -1.704858737058E-01 -1.155911494979E-01 -4.791154675916E-01
C37 -4.560008182391E-01 -4.333131680519E-01  3.953369793507E-01
H38 -4.767389522382E-01 -3.602791335112E-01  4.584477379793E-01
C39  4.928892441276E-01 -3.168745988587E-01  3.254033037717E-01
C40 -3.727593554124E-01  3.501117395689E-01  3.870501436691E-01
H41  4.312127726839E-01 -1.518995424407E-01  3.321494843064E-01
C42 -4.817323543181E-01 -4.101268605097E-01  2.411667388390E-01
H43 -3.319846733178E-01  2.612219677332E-01  4.439345639848E-01
C44 -3.438836100593E-01  2.557934992159E-01  3.088232540461E-01
C45  4.629909277832E-01 -2.979871262596E-01  1.680210479380E-01
C46 -3.987171124431E-01  3.693624260076E-01  2.324431395793E-01
H47 -2.807047966152E-01  9.168562376889E-02  3.025209649339E-01
H48  4.015322341416E-01 -1.327720278842E-01  1.747385985723E-01
C49  4.816628576556E-01 -3.946953364789E-01  8.396485674234E-02
C50 -3.771851115127E-01  2.736321209915E-01  1.508036764479E-01
C51  4.208963023459E-01 -2.852945298552E-01  8.799713865416E-03
C52 -4.367606518583E-01  3.837566142275E-01  7.489989801662E-02
H53 -3.163679527438E-01  1.080257899781E-01  1.440148246823E-01
H54  3.604469566021E-01 -1.195616845802E-01  1.573386612122E-02
C55  4.367606518583E-01 -3.837566142275E-01 -7.489989801662E-02
C56 -4.208963023459E-01  2.852945298552E-01 -8.799713865416E-03
C57  3.771851115127E-01 -2.736321209915E-01 -1.508036764479E-01
C58 -4.816628576556E-01  3.946953364789E-01 -8.396485674234E-02
H59 -3.604469566021E-01  1.195616845802E-01 -1.573386612122E-02
H60  3.163679527438E-01 -1.080257899781E-01 -1.440148246823E-01
C61  3.987171124431E-01 -3.693624260076E-01 -2.324431395793E-01
C62 -4.629909277832E-01  2.979871262596E-01 -1.680210479380E-01
C63  3.438836100593E-01 -2.557934992159E-01 -3.088232540461E-01
C64  4.817323543181E-01  4.101268605097E-01 -2.411667388390E-01
H65 -4.015322341416E-01  1.327720278842E-01 -1.747385985723E-01
H66  2.807047966152E-01 -9.168562376889E-02 -3.025209649339E-01
C67  3.727593554124E-01 -3.501117395689E-01 -3.870501436691E-01
C68 -4.928892441276E-01  3.168745988587E-01 -3.254033037717E-01
H69  3.319846733178E-01 -2.612219677332E-01 -4.439345639848E-01
C70  4.560008182391E-01  4.333131680519E-01 -3.953369793507E-01
H71 -4.312127726839E-01  1.518995424407E-01 -3.321494843064E-01
H72  4.767389522382E-01  3.602791335112E-01 -4.584477379793E-01


#===END
