###############################################################################
#
#                    CRYSTAL17 CIF FILE
#
###############################################################################

data_OPT_STEP_1

_symmetry_space_group_name_H-M 'P 1'
_cell_length_a      7.90000000
_cell_length_b      6.06000000
_cell_length_c     16.01000000
_cell_angle_alpha  101.900002
_cell_angle_beta  112.599998
_cell_angle_gamma   85.800003

loop_
_atom_site_label
_atom_site_fract_x
_atom_site_fract_y
_atom_site_fract_z
C1  1.283435472411E-01  4.473160475084E-02  4.063351201972E-01
H2  1.753284823656E-01  1.145479381210E-01  4.795426457395E-01
C3  1.558690440851E-01  1.612273678750E-01  3.484528296500E-01
C4  3.622118855355E-02 -1.687831576630E-01  3.714221035473E-01
H5  2.219643374573E-01  3.254189657215E-01  3.741767826519E-01
C6  9.535743366456E-02  7.227949770478E-02  2.514310151664E-01
H7  1.266929191314E-02 -2.576475812622E-01  4.182778396721E-01
C8 -2.201662270795E-02 -2.610629378032E-01  2.799867189078E-01
C9  1.186610809070E-01  1.887584063539E-01  1.906812132278E-01
C10  6.868977972721E-03 -1.470436400211E-01  2.165497802039E-01
H11 -9.106527968213E-02 -4.232012477245E-01  2.535542020491E-01
H12  1.839353884887E-01  3.534151767821E-01  2.166914342506E-01
C13  5.961354660823E-02  9.862803482290E-02  9.533999807974E-02
C14 -4.858549495832E-02 -2.394140516871E-01  1.234663684157E-01
C15  8.076116725129E-02  2.158969767265E-01  3.329930118829E-02
C16 -2.405983001669E-02 -1.239695237900E-01  6.086924276784E-02
H17 -1.139348096769E-01 -4.039324766427E-01  9.754483917701E-02
H18  1.444131068174E-01  3.815382147017E-01  5.899906328834E-02
C19  2.405983001669E-02  1.239695237900E-01 -6.086924276784E-02
C20 -8.076116725129E-02 -2.158969767265E-01 -3.329930118829E-02
C21  4.858549495832E-02  2.394140516871E-01 -1.234663684157E-01
C22 -5.961354660823E-02 -9.862803482290E-02 -9.533999807974E-02
H23 -1.444131068174E-01 -3.815382147017E-01 -5.899906328834E-02
H24  1.139348096769E-01  4.039324766427E-01 -9.754483917701E-02
C25 -6.868977972721E-03  1.470436400211E-01 -2.165497802039E-01
C26 -1.186610809070E-01 -1.887584063539E-01 -1.906812132278E-01
C27  2.201662270795E-02  2.610629378032E-01 -2.799867189078E-01
C28 -9.535743366456E-02 -7.227949770478E-02 -2.514310151663E-01
H29 -1.839353884887E-01 -3.534151767821E-01 -2.166914342506E-01
H30  9.106527968213E-02  4.232012477245E-01 -2.535542020491E-01
C31 -3.622118855355E-02  1.687831576630E-01 -3.714221035473E-01
C32 -1.558690440851E-01 -1.612273678750E-01 -3.484528296500E-01
H33 -1.266929191314E-02  2.576475812622E-01 -4.182778396721E-01
C34 -1.283435472411E-01 -4.473160475084E-02 -4.063351201972E-01
H35 -2.219643374573E-01 -3.254189657215E-01 -3.741767826519E-01
H36 -1.753284823656E-01 -1.145479381210E-01 -4.795426457395E-01
C37 -4.507924073058E-01 -4.301915528954E-01  3.963189228143E-01
H38 -4.680762450379E-01 -3.551856809099E-01  4.600827380228E-01
C39  4.925743588895E-01 -3.167958577151E-01  3.253396345967E-01
C40 -3.662231747901E-01  3.539367841968E-01  3.882758408262E-01
H41  4.310804948909E-01 -1.517573933538E-01  3.321596181489E-01
C42 -4.857061784888E-01 -4.119726937089E-01  2.404267260782E-01
H43 -3.190551634945E-01  2.687212512150E-01  4.463970423300E-01
C44 -3.454638787721E-01  2.552374183713E-01  3.085055585138E-01
C45  4.628792745682E-01 -2.977838328577E-01  1.679868130471E-01
C46 -4.066915173435E-01  3.653337876999E-01  2.309678983724E-01
H47 -2.823595700254E-01  9.110637504357E-02  3.021255567507E-01
H48  4.060205101030E-01 -1.300254017324E-01  1.755603657937E-01
C49  4.817344446117E-01 -3.944540059107E-01  8.397637563552E-02
C50 -3.907402986019E-01  2.665379818677E-01  1.482990567787E-01
C51  4.308141685299E-01 -2.799090967962E-01  1.060937246003E-02
C52 -4.463355512430E-01  3.787186580063E-01  7.313110101757E-02
H53 -3.325456819678E-01  9.953545056535E-02  1.410580487718E-01
H54  3.757808501190E-01 -1.111081633278E-01  1.849276015592E-02
C55  4.463355512430E-01 -3.787186580063E-01 -7.313110101757E-02
C56 -4.308141685299E-01  2.799090967962E-01 -1.060937246003E-02
C57  3.907402986019E-01 -2.665379818677E-01 -1.482990567787E-01
C58 -4.817344446117E-01  3.944540059107E-01 -8.397637563552E-02
H59 -3.757808501190E-01  1.111081633278E-01 -1.849276015592E-02
H60  3.325456819678E-01 -9.953545056535E-02 -1.410580487718E-01
C61  4.066915173435E-01 -3.653337876999E-01 -2.309678983724E-01
C62 -4.628792745682E-01  2.977838328577E-01 -1.679868130471E-01
C63  3.454638787721E-01 -2.552374183713E-01 -3.085055585138E-01
C64  4.857061784888E-01  4.119726937089E-01 -2.404267260782E-01
H65 -4.060205101030E-01  1.300254017324E-01 -1.755603657937E-01
H66  2.823595700254E-01 -9.110637504357E-02 -3.021255567507E-01
C67  3.662231747901E-01 -3.539367841968E-01 -3.882758408262E-01
C68 -4.925743588895E-01  3.167958577151E-01 -3.253396345967E-01
H69  3.190551634945E-01 -2.687212512150E-01 -4.463970423300E-01
C70  4.507924073058E-01  4.301915528954E-01 -3.963189228143E-01
H71 -4.310804948909E-01  1.517573933538E-01 -3.321596181489E-01
H72  4.680762450379E-01  3.551856809099E-01 -4.600827380228E-01


#===END

data_OPT_STEP_2

_symmetry_space_group_name_H-M 'P 1'
_cell_length_a      7.90000000
_cell_length_b      6.06000000
_cell_length_c     16.01000000
_cell_angle_alpha  101.900002
_cell_angle_beta  112.599998
_cell_angle_gamma   85.800003

loop_
_atom_site_label
_atom_site_fract_x
_atom_site_fract_y
_atom_site_fract_z
C1  1.283435472411E-01  4.473160475084E-02  4.063351201972E-01
H2  1.753284823656E-01  1.145479381210E-01  4.795426457395E-01
C3  1.558690440851E-01  1.612273678750E-01  3.484528296500E-01
C4  3.622118855355E-02 -1.687831576630E-01  3.714221035473E-01
H5  2.219643374573E-01  3.254189657215E-01  3.741767826519E-01
C6  9.535743366456E-02  7.227949770478E-02  2.514310151664E-01
H7  1.266929191314E-02 -2.576475812622E-01  4.182778396721E-01
C8 -2.201662270795E-02 -2.610629378032E-01  2.799867189078E-01
C9  1.186610809070E-01  1.887584063539E-01  1.906812132278E-01
C10  6.868977972721E-03 -1.470436400211E-01  2.165497802039E-01
H11 -9.106527968213E-02 -4.232012477245E-01  2.535542020491E-01
H12  1.839353884887E-01  3.534151767821E-01  2.166914342506E-01
C13  5.961354660823E-02  9.862803482290E-02  9.533999807974E-02
C14 -4.858549495832E-02 -2.394140516871E-01  1.234663684157E-01
C15  8.076116725129E-02  2.158969767265E-01  3.329930118829E-02
C16 -2.405983001669E-02 -1.239695237900E-01  6.086924276784E-02
H17 -1.139348096769E-01 -4.039324766427E-01  9.754483917701E-02
H18  1.444131068174E-01  3.815382147017E-01  5.899906328834E-02
C19  2.405983001669E-02  1.239695237900E-01 -6.086924276784E-02
C20 -8.076116725129E-02 -2.158969767265E-01 -3.329930118829E-02
C21  4.858549495832E-02  2.394140516871E-01 -1.234663684157E-01
C22 -5.961354660823E-02 -9.862803482290E-02 -9.533999807974E-02
H23 -1.444131068174E-01 -3.815382147017E-01 -5.899906328834E-02
H24  1.139348096769E-01  4.039324766427E-01 -9.754483917701E-02
C25 -6.868977972721E-03  1.470436400211E-01 -2.165497802039E-01
C26 -1.186610809070E-01 -1.887584063539E-01 -1.906812132278E-01
C27  2.201662270795E-02  2.610629378032E-01 -2.799867189078E-01
C28 -9.535743366456E-02 -7.227949770478E-02 -2.514310151663E-01
H29 -1.839353884887E-01 -3.534151767821E-01 -2.166914342506E-01
H30  9.106527968213E-02  4.232012477245E-01 -2.535542020491E-01
C31 -3.622118855355E-02  1.687831576630E-01 -3.714221035473E-01
C32 -1.558690440851E-01 -1.612273678750E-01 -3.484528296500E-01
H33 -1.266929191314E-02  2.576475812622E-01 -4.182778396721E-01
C34 -1.283435472411E-01 -4.473160475084E-02 -4.063351201972E-01
H35 -2.219643374573E-01 -3.254189657215E-01 -3.741767826519E-01
H36 -1.753284823656E-01 -1.145479381210E-01 -4.795426457395E-01
C37 -4.507924073058E-01 -4.301915528954E-01  3.963189228143E-01
H38 -4.680762450379E-01 -3.551856809099E-01  4.600827380228E-01
C39  4.925743588895E-01 -3.167958577151E-01  3.253396345967E-01
C40 -3.662231747901E-01  3.539367841968E-01  3.882758408262E-01
H41  4.310804948909E-01 -1.517573933538E-01  3.321596181489E-01
C42 -4.857061784888E-01 -4.119726937089E-01  2.404267260782E-01
H43 -3.190551634945E-01  2.687212512150E-01  4.463970423300E-01
C44 -3.454638787721E-01  2.552374183713E-01  3.085055585138E-01
C45  4.628792745682E-01 -2.977838328577E-01  1.679868130471E-01
C46 -4.066915173435E-01  3.653337876999E-01  2.309678983724E-01
H47 -2.823595700254E-01  9.110637504357E-02  3.021255567507E-01
H48  4.060205101030E-01 -1.300254017324E-01  1.755603657937E-01
C49  4.817344446117E-01 -3.944540059107E-01  8.397637563552E-02
C50 -3.907402986019E-01  2.665379818677E-01  1.482990567787E-01
C51  4.308141685299E-01 -2.799090967962E-01  1.060937246003E-02
C52 -4.463355512430E-01  3.787186580063E-01  7.313110101757E-02
H53 -3.325456819678E-01  9.953545056535E-02  1.410580487718E-01
H54  3.757808501190E-01 -1.111081633278E-01  1.849276015592E-02
C55  4.463355512430E-01 -3.787186580063E-01 -7.313110101757E-02
C56 -4.308141685299E-01  2.799090967962E-01 -1.060937246003E-02
C57  3.907402986019E-01 -2.665379818677E-01 -1.482990567787E-01
C58 -4.817344446117E-01  3.944540059107E-01 -8.397637563552E-02
H59 -3.757808501190E-01  1.111081633278E-01 -1.849276015592E-02
H60  3.325456819678E-01 -9.953545056535E-02 -1.410580487718E-01
C61  4.066915173435E-01 -3.653337876999E-01 -2.309678983724E-01
C62 -4.628792745682E-01  2.977838328577E-01 -1.679868130471E-01
C63  3.454638787721E-01 -2.552374183713E-01 -3.085055585138E-01
C64  4.857061784888E-01  4.119726937089E-01 -2.404267260782E-01
H65 -4.060205101030E-01  1.300254017324E-01 -1.755603657937E-01
H66  2.823595700254E-01 -9.110637504357E-02 -3.021255567507E-01
C67  3.662231747901E-01 -3.539367841968E-01 -3.882758408262E-01
C68 -4.925743588895E-01  3.167958577151E-01 -3.253396345967E-01
H69  3.190551634945E-01 -2.687212512150E-01 -4.463970423300E-01
C70  4.507924073058E-01  4.301915528954E-01 -3.963189228143E-01
H71 -4.310804948909E-01  1.517573933538E-01 -3.321596181489E-01
H72  4.680762450379E-01  3.551856809099E-01 -4.600827380228E-01


#===END
