###############################################################################
#
#                    CRYSTAL17 CIF FILE
#
###############################################################################

data_OPT_STEP_1

_symmetry_space_group_name_H-M 'P 1'
_cell_length_a      7.90000000
_cell_length_b      6.06000000
_cell_length_c     16.01000000
_cell_angle_alpha  101.900002
_cell_angle_beta  112.599998
_cell_angle_gamma   85.800003

loop_
_atom_site_label
_atom_site_fract_x
_atom_site_fract_y
_atom_site_fract_z
C1  1.233404291692E-01  4.889180140738E-02  4.058556231593E-01
H2  1.654421065669E-01  1.218634341854E-01  4.786189948717E-01
C3  1.475569381117E-01  1.666419682577E-01  3.475060091786E-01
C4  4.359438456563E-02 -1.719693401110E-01  3.721183509236E-01
H5  2.077087755072E-01  3.342792004949E-01  3.724979420766E-01
C6  9.362861359465E-02  7.307574037660E-02  2.511152443826E-01
H7  2.682515555624E-02 -2.645663532562E-01  4.196425386103E-01
C8 -1.397496618331E-02 -2.654086209878E-01  2.807887060049E-01
C9  1.234494100583E-01  1.853973471674E-01  1.909153905219E-01
C10  6.148674079318E-03 -1.469086098618E-01  2.164072849178E-01
H11 -7.673836785185E-02 -4.313329871210E-01  2.551228110260E-01
H12  1.920781214471E-01  3.479471507620E-01  2.171328058928E-01
C13  6.474268377007E-02  9.500049963605E-02  9.566119165028E-02
C14 -5.550469880263E-02 -2.357651701231E-01  1.228112076574E-01
C15  9.415054573022E-02  2.077939124834E-01  3.448416440681E-02
C16 -3.110880893946E-02 -1.201710593690E-01  6.020816608373E-02
H17 -1.227414656403E-01 -3.992131083844E-01  9.670160467613E-02
H18  1.647722928595E-01  3.690985688315E-01  6.095849190675E-02
C19  3.110880893946E-02  1.201710593690E-01 -6.020816608373E-02
C20 -9.415054573022E-02 -2.077939124834E-01 -3.448416440681E-02
C21  5.550469880263E-02  2.357651701231E-01 -1.228112076574E-01
C22 -6.474268377007E-02 -9.500049963605E-02 -9.566119165028E-02
H23 -1.647722928595E-01 -3.690985688315E-01 -6.095849190675E-02
H24  1.227414656403E-01  3.992131083844E-01 -9.670160467613E-02
C25 -6.148674079318E-03  1.469086098618E-01 -2.164072849178E-01
C26 -1.234494100583E-01 -1.853973471674E-01 -1.909153905219E-01
C27  1.397496618331E-02  2.654086209878E-01 -2.807887060049E-01
C28 -9.362861359465E-02 -7.307574037660E-02 -2.511152443826E-01
H29 -1.920781214471E-01 -3.479471507620E-01 -2.171328058928E-01
H30  7.673836785185E-02  4.313329871210E-01 -2.551228110260E-01
C31 -4.359438456563E-02  1.719693401110E-01 -3.721183509236E-01
C32 -1.475569381117E-01 -1.666419682577E-01 -3.475060091786E-01
H33 -2.682515555624E-02  2.645663532562E-01 -4.196425386103E-01
C34 -1.233404291692E-01 -4.889180140738E-02 -4.058556231593E-01
H35 -2.077087755072E-01 -3.342792004949E-01 -3.724979420766E-01
H36 -1.654421065669E-01 -1.218634341854E-01 -4.786189948717E-01
C37 -4.498754429717E-01 -4.295893119951E-01  3.964995342784E-01
H38 -4.660043275075E-01 -3.541496030717E-01  4.605012599300E-01
C39  4.925191323567E-01 -3.166861755539E-01  3.253504455719E-01
C40 -3.656973086759E-01  3.543166397155E-01  3.883409396421E-01
H41  4.310200364743E-01 -1.516102088874E-01  3.321532623256E-01
C42 -4.865259106945E-01 -4.123198902380E-01  2.402833986163E-01
H43 -3.186032984097E-01  2.690218415501E-01  4.464342666648E-01
C44 -3.455806733208E-01  2.552020936293E-01  3.084543900666E-01
C45  4.611712390316E-01 -2.986695134537E-01  1.676660704425E-01
C46 -4.070666196851E-01  3.651960992516E-01  2.308867009220E-01
H47 -2.828092144660E-01  9.086329431787E-02  3.020087421559E-01
H48  4.037827575357E-01 -1.312219222958E-01  1.751339345026E-01
C49  4.806013388573E-01 -3.950600497374E-01  8.376484083276E-02
C50 -3.911082041120E-01  2.663969009145E-01  1.482317532420E-01
C51  4.299366451966E-01 -2.804308883209E-01  1.043583239126E-02
C52 -4.465628455424E-01  3.786180049537E-01  7.308901886895E-02
H53 -3.327591535624E-01  9.947688149029E-02  1.410415042271E-01
H54  3.743933037690E-01 -1.119440876558E-01  1.821355194691E-02
C55  4.465628455424E-01 -3.786180049537E-01 -7.308901886895E-02
C56 -4.299366451966E-01  2.804308883209E-01 -1.043583239126E-02
C57  3.911082041120E-01 -2.663969009145E-01 -1.482317532420E-01
C58 -4.806013388573E-01  3.950600497374E-01 -8.376484083276E-02
H59 -3.743933037690E-01  1.119440876558E-01 -1.821355194691E-02
H60  3.327591535624E-01 -9.947688149029E-02 -1.410415042271E-01
C61  4.070666196851E-01 -3.651960992516E-01 -2.308867009220E-01
C62 -4.611712390316E-01  2.986695134537E-01 -1.676660704425E-01
C63  3.455806733208E-01 -2.552020936293E-01 -3.084543900666E-01
C64  4.865259106945E-01  4.123198902380E-01 -2.402833986163E-01
H65 -4.037827575357E-01  1.312219222958E-01 -1.751339345026E-01
H66  2.828092144660E-01 -9.086329431787E-02 -3.020087421559E-01
C67  3.656973086759E-01 -3.543166397155E-01 -3.883409396421E-01
C68 -4.925191323567E-01  3.166861755539E-01 -3.253504455719E-01
H69  3.186032984097E-01 -2.690218415501E-01 -4.464342666648E-01
C70  4.498754429717E-01  4.295893119951E-01 -3.964995342784E-01
H71 -4.310200364743E-01  1.516102088874E-01 -3.321532623256E-01
H72  4.660043275075E-01  3.541496030717E-01 -4.605012599300E-01


#===END

data_OPT_STEP_2

_symmetry_space_group_name_H-M 'P 1'
_cell_length_a      7.90000000
_cell_length_b      6.06000000
_cell_length_c     16.01000000
_cell_angle_alpha  101.900002
_cell_angle_beta  112.599998
_cell_angle_gamma   85.800003

loop_
_atom_site_label
_atom_site_fract_x
_atom_site_fract_y
_atom_site_fract_z
C1  1.233404291692E-01  4.889180140738E-02  4.058556231593E-01
H2  1.654421065669E-01  1.218634341854E-01  4.786189948717E-01
C3  1.475569381117E-01  1.666419682577E-01  3.475060091786E-01
C4  4.359438456563E-02 -1.719693401110E-01  3.721183509236E-01
H5  2.077087755072E-01  3.342792004949E-01  3.724979420766E-01
C6  9.362861359465E-02  7.307574037660E-02  2.511152443826E-01
H7  2.682515555624E-02 -2.645663532562E-01  4.196425386103E-01
C8 -1.397496618331E-02 -2.654086209878E-01  2.807887060049E-01
C9  1.234494100583E-01  1.853973471674E-01  1.909153905219E-01
C10  6.148674079318E-03 -1.469086098618E-01  2.164072849178E-01
H11 -7.673836785185E-02 -4.313329871210E-01  2.551228110260E-01
H12  1.920781214471E-01  3.479471507620E-01  2.171328058928E-01
C13  6.474268377007E-02  9.500049963605E-02  9.566119165028E-02
C14 -5.550469880263E-02 -2.357651701231E-01  1.228112076574E-01
C15  9.415054573022E-02  2.077939124834E-01  3.448416440681E-02
C16 -3.110880893946E-02 -1.201710593690E-01  6.020816608373E-02
H17 -1.227414656403E-01 -3.992131083844E-01  9.670160467613E-02
H18  1.647722928595E-01  3.690985688315E-01  6.095849190675E-02
C19  3.110880893946E-02  1.201710593690E-01 -6.020816608373E-02
C20 -9.415054573022E-02 -2.077939124834E-01 -3.448416440681E-02
C21  5.550469880263E-02  2.357651701231E-01 -1.228112076574E-01
C22 -6.474268377007E-02 -9.500049963605E-02 -9.566119165028E-02
H23 -1.647722928595E-01 -3.690985688315E-01 -6.095849190675E-02
H24  1.227414656403E-01  3.992131083844E-01 -9.670160467613E-02
C25 -6.148674079318E-03  1.469086098618E-01 -2.164072849178E-01
C26 -1.234494100583E-01 -1.853973471674E-01 -1.909153905219E-01
C27  1.397496618331E-02  2.654086209878E-01 -2.807887060049E-01
C28 -9.362861359465E-02 -7.307574037660E-02 -2.511152443826E-01
H29 -1.920781214471E-01 -3.479471507620E-01 -2.171328058928E-01
H30  7.673836785185E-02  4.313329871210E-01 -2.551228110260E-01
C31 -4.359438456563E-02  1.719693401110E-01 -3.721183509236E-01
C32 -1.475569381117E-01 -1.666419682577E-01 -3.475060091786E-01
H33 -2.682515555624E-02  2.645663532562E-01 -4.196425386103E-01
C34 -1.233404291692E-01 -4.889180140738E-02 -4.058556231593E-01
H35 -2.077087755072E-01 -3.342792004949E-01 -3.724979420766E-01
H36 -1.654421065669E-01 -1.218634341854E-01 -4.786189948717E-01
C37 -4.498754429717E-01 -4.295893119951E-01  3.964995342784E-01
H38 -4.660043275075E-01 -3.541496030717E-01  4.605012599300E-01
C39  4.925191323567E-01 -3.166861755539E-01  3.253504455719E-01
C40 -3.656973086759E-01  3.543166397155E-01  3.883409396421E-01
H41  4.310200364743E-01 -1.516102088874E-01  3.321532623256E-01
C42 -4.865259106945E-01 -4.123198902380E-01  2.402833986163E-01
H43 -3.186032984097E-01  2.690218415501E-01  4.464342666648E-01
C44 -3.455806733208E-01  2.552020936293E-01  3.084543900666E-01
C45  4.611712390316E-01 -2.986695134537E-01  1.676660704425E-01
C46 -4.070666196851E-01  3.651960992516E-01  2.308867009220E-01
H47 -2.828092144660E-01  9.086329431787E-02  3.020087421559E-01
H48  4.037827575357E-01 -1.312219222958E-01  1.751339345026E-01
C49  4.806013388573E-01 -3.950600497374E-01  8.376484083276E-02
C50 -3.911082041120E-01  2.663969009145E-01  1.482317532420E-01
C51  4.299366451966E-01 -2.804308883209E-01  1.043583239126E-02
C52 -4.465628455424E-01  3.786180049537E-01  7.308901886895E-02
H53 -3.327591535624E-01  9.947688149029E-02  1.410415042271E-01
H54  3.743933037690E-01 -1.119440876558E-01  1.821355194691E-02
C55  4.465628455424E-01 -3.786180049537E-01 -7.308901886895E-02
C56 -4.299366451966E-01  2.804308883209E-01 -1.043583239126E-02
C57  3.911082041120E-01 -2.663969009145E-01 -1.482317532420E-01
C58 -4.806013388573E-01  3.950600497374E-01 -8.376484083276E-02
H59 -3.743933037690E-01  1.119440876558E-01 -1.821355194691E-02
H60  3.327591535624E-01 -9.947688149029E-02 -1.410415042271E-01
C61  4.070666196851E-01 -3.651960992516E-01 -2.308867009220E-01
C62 -4.611712390316E-01  2.986695134537E-01 -1.676660704425E-01
C63  3.455806733208E-01 -2.552020936293E-01 -3.084543900666E-01
C64  4.865259106945E-01  4.123198902380E-01 -2.402833986163E-01
H65 -4.037827575357E-01  1.312219222958E-01 -1.751339345026E-01
H66  2.828092144660E-01 -9.086329431787E-02 -3.020087421559E-01
C67  3.656973086759E-01 -3.543166397155E-01 -3.883409396421E-01
C68 -4.925191323567E-01  3.166861755539E-01 -3.253504455719E-01
H69  3.186032984097E-01 -2.690218415501E-01 -4.464342666648E-01
C70  4.498754429717E-01  4.295893119951E-01 -3.964995342784E-01
H71 -4.310200364743E-01  1.516102088874E-01 -3.321532623256E-01
H72  4.660043275075E-01  3.541496030717E-01 -4.605012599300E-01


#===END
