###############################################################################
#
#                    CRYSTAL17 CIF FILE
#
###############################################################################

data_OPT_STEP_1

_symmetry_space_group_name_H-M 'P 1'
_cell_length_a      7.90000000
_cell_length_b      6.06000000
_cell_length_c     16.01000000
_cell_angle_alpha  101.900002
_cell_angle_beta  112.599998
_cell_angle_gamma   85.800003

loop_
_atom_site_label
_atom_site_fract_x
_atom_site_fract_y
_atom_site_fract_z
C1  1.190368541293E-01  5.274901322689E-02  4.058279845931E-01
H2  1.647773322301E-01  1.240632389716E-01  4.788765007316E-01
C3  1.440065531693E-01  1.698959618693E-01  3.474771351368E-01
C4  3.251185830557E-02 -1.640900222844E-01  3.716497877972E-01
H5  2.073534718934E-01  3.356676401448E-01  3.727207593632E-01
C6  8.656418731979E-02  7.811072933955E-02  2.507328750940E-01
H7  1.321428323235E-02 -2.546441874770E-01  4.191183687039E-01
C8 -2.644655169342E-02 -2.570496395342E-01  2.802110067063E-01
C9  1.137742298476E-01  1.919964345042E-01  1.902279112456E-01
C10 -1.230016486358E-03 -1.416022677930E-01  2.161272272034E-01
H11 -9.291532210142E-02 -4.208576122132E-01  2.543160541753E-01
H12  1.800887604838E-01  3.559600957321E-01  2.162924873904E-01
C13  5.790840605748E-02  9.961170460730E-02  9.515736333820E-02
C14 -5.763583402176E-02 -2.338535312615E-01  1.229144163091E-01
C15  8.582999277197E-02  2.129092109524E-01  3.366694539148E-02
C16 -3.036734638166E-02 -1.200445699754E-01  6.044375039201E-02
H17 -1.234553825499E-01 -3.981110760010E-01  9.700766330215E-02
H18  1.518108777059E-01  3.770221920226E-01  5.958505213110E-02
C19  3.036734638166E-02  1.200445699754E-01 -6.044375039201E-02
C20 -8.582999277197E-02 -2.129092109524E-01 -3.366694539148E-02
C21  5.763583402176E-02  2.338535312615E-01 -1.229144163091E-01
C22 -5.790840605748E-02 -9.961170460730E-02 -9.515736333820E-02
H23 -1.518108777059E-01 -3.770221920226E-01 -5.958505213110E-02
H24  1.234553825499E-01  3.981110760010E-01 -9.700766330215E-02
C25  1.230016486358E-03  1.416022677930E-01 -2.161272272034E-01
C26 -1.137742298476E-01 -1.919964345042E-01 -1.902279112456E-01
C27  2.644655169342E-02  2.570496395342E-01 -2.802110067063E-01
C28 -8.656418731979E-02 -7.811072933955E-02 -2.507328750940E-01
H29 -1.800887604838E-01 -3.559600957321E-01 -2.162924873904E-01
H30  9.291532210142E-02  4.208576122132E-01 -2.543160541753E-01
C31 -3.251185830557E-02  1.640900222844E-01 -3.716497877972E-01
C32 -1.440065531693E-01 -1.698959618693E-01 -3.474771351368E-01
H33 -1.321428323235E-02  2.546441874770E-01 -4.191183687039E-01
C34 -1.190368541293E-01 -5.274901322689E-02 -4.058279845931E-01
H35 -2.073534718934E-01 -3.356676401448E-01 -3.727207593632E-01
H36 -1.647773322301E-01 -1.240632389716E-01 -4.788765007316E-01
C37 -4.561045904422E-01 -4.499422393267E-01  3.944354899762E-01
H38 -4.683884193740E-01 -3.749849151216E-01  4.594104296394E-01
C39  4.871905711598E-01 -3.333031555068E-01  3.244406851050E-01
C40 -3.792160268730E-01  3.304469684844E-01  3.836725835101E-01
H41  4.290886403145E-01 -1.666491786260E-01  3.328828301201E-01
C42 -4.952300176863E-01 -4.272412466688E-01  2.383483257309E-01
H43 -3.352448202320E-01  2.409521138613E-01  4.404310193867E-01
C44 -3.600090052439E-01  2.342754163156E-01  3.032864735484E-01
C45  4.503973613370E-01 -3.115007536711E-01  1.662579699106E-01
C46 -4.159971623371E-01  3.506571636807E-01  2.276472722495E-01
H47 -3.005289770728E-01  6.849400765760E-02  2.952868684419E-01
H48  3.908510984877E-01 -1.455710162678E-01  1.742687808323E-01
C49  4.732189405880E-01 -4.026957993287E-01  8.269782074653E-02
C50 -3.941395980061E-01  2.583730031142E-01  1.457829741287E-01
C51  4.217232266401E-01 -2.851257788657E-01  1.015292636107E-02
C52 -4.464720615057E-01  3.755970673518E-01  7.212386655813E-02
H53 -3.342511862328E-01  9.260360979201E-02  1.379543995234E-01
H54  3.616100131637E-01 -1.194865981956E-01  1.797399358861E-02
C55  4.464720615057E-01 -3.755970673518E-01 -7.212386655813E-02
C56 -4.217232266401E-01  2.851257788657E-01 -1.015292636107E-02
C57  3.941395980061E-01 -2.583730031142E-01 -1.457829741287E-01
C58 -4.732189405880E-01  4.026957993287E-01 -8.269782074653E-02
H59 -3.616100131637E-01  1.194865981956E-01 -1.797399358861E-02
H60  3.342511862328E-01 -9.260360979201E-02 -1.379543995234E-01
C61  4.159971623371E-01 -3.506571636807E-01 -2.276472722495E-01
C62 -4.503973613370E-01  3.115007536711E-01 -1.662579699106E-01
C63  3.600090052439E-01 -2.342754163156E-01 -3.032864735484E-01
C64  4.952300176863E-01  4.272412466688E-01 -2.383483257309E-01
H65 -3.908510984877E-01  1.455710162678E-01 -1.742687808323E-01
H66  3.005289770728E-01 -6.849400765760E-02 -2.952868684419E-01
C67  3.792160268730E-01 -3.304469684844E-01 -3.836725835101E-01
C68 -4.871905711598E-01  3.333031555068E-01 -3.244406851050E-01
H69  3.352448202320E-01 -2.409521138613E-01 -4.404310193867E-01
C70  4.561045904422E-01  4.499422393267E-01 -3.944354899762E-01
H71 -4.290886403145E-01  1.666491786260E-01 -3.328828301201E-01
H72  4.683884193740E-01  3.749849151216E-01 -4.594104296394E-01


#===END

data_OPT_STEP_2

_symmetry_space_group_name_H-M 'P 1'
_cell_length_a      7.90000000
_cell_length_b      6.06000000
_cell_length_c     16.01000000
_cell_angle_alpha  101.900002
_cell_angle_beta  112.599998
_cell_angle_gamma   85.800003

loop_
_atom_site_label
_atom_site_fract_x
_atom_site_fract_y
_atom_site_fract_z
C1  1.190368541293E-01  5.274901322689E-02  4.058279845931E-01
H2  1.647773322301E-01  1.240632389716E-01  4.788765007316E-01
C3  1.440065531693E-01  1.698959618693E-01  3.474771351368E-01
C4  3.251185830557E-02 -1.640900222844E-01  3.716497877972E-01
H5  2.073534718934E-01  3.356676401448E-01  3.727207593632E-01
C6  8.656418731979E-02  7.811072933955E-02  2.507328750940E-01
H7  1.321428323235E-02 -2.546441874770E-01  4.191183687039E-01
C8 -2.644655169342E-02 -2.570496395342E-01  2.802110067063E-01
C9  1.137742298476E-01  1.919964345042E-01  1.902279112456E-01
C10 -1.230016486358E-03 -1.416022677930E-01  2.161272272034E-01
H11 -9.291532210142E-02 -4.208576122132E-01  2.543160541753E-01
H12  1.800887604838E-01  3.559600957321E-01  2.162924873904E-01
C13  5.790840605748E-02  9.961170460730E-02  9.515736333820E-02
C14 -5.763583402176E-02 -2.338535312615E-01  1.229144163091E-01
C15  8.582999277197E-02  2.129092109524E-01  3.366694539148E-02
C16 -3.036734638166E-02 -1.200445699754E-01  6.044375039201E-02
H17 -1.234553825499E-01 -3.981110760010E-01  9.700766330215E-02
H18  1.518108777059E-01  3.770221920226E-01  5.958505213110E-02
C19  3.036734638166E-02  1.200445699754E-01 -6.044375039201E-02
C20 -8.582999277197E-02 -2.129092109524E-01 -3.366694539148E-02
C21  5.763583402176E-02  2.338535312615E-01 -1.229144163091E-01
C22 -5.790840605748E-02 -9.961170460730E-02 -9.515736333820E-02
H23 -1.518108777059E-01 -3.770221920226E-01 -5.958505213110E-02
H24  1.234553825499E-01  3.981110760010E-01 -9.700766330215E-02
C25  1.230016486358E-03  1.416022677930E-01 -2.161272272034E-01
C26 -1.137742298476E-01 -1.919964345042E-01 -1.902279112456E-01
C27  2.644655169342E-02  2.570496395342E-01 -2.802110067063E-01
C28 -8.656418731979E-02 -7.811072933955E-02 -2.507328750940E-01
H29 -1.800887604838E-01 -3.559600957321E-01 -2.162924873904E-01
H30  9.291532210142E-02  4.208576122132E-01 -2.543160541753E-01
C31 -3.251185830557E-02  1.640900222844E-01 -3.716497877972E-01
C32 -1.440065531693E-01 -1.698959618693E-01 -3.474771351368E-01
H33 -1.321428323235E-02  2.546441874770E-01 -4.191183687039E-01
C34 -1.190368541293E-01 -5.274901322689E-02 -4.058279845931E-01
H35 -2.073534718934E-01 -3.356676401448E-01 -3.727207593632E-01
H36 -1.647773322301E-01 -1.240632389716E-01 -4.788765007316E-01
C37 -4.561045904422E-01 -4.499422393267E-01  3.944354899762E-01
H38 -4.683884193740E-01 -3.749849151216E-01  4.594104296394E-01
C39  4.871905711598E-01 -3.333031555068E-01  3.244406851050E-01
C40 -3.792160268730E-01  3.304469684844E-01  3.836725835101E-01
H41  4.290886403145E-01 -1.666491786260E-01  3.328828301201E-01
C42 -4.952300176863E-01 -4.272412466688E-01  2.383483257309E-01
H43 -3.352448202320E-01  2.409521138613E-01  4.404310193867E-01
C44 -3.600090052439E-01  2.342754163156E-01  3.032864735484E-01
C45  4.503973613370E-01 -3.115007536711E-01  1.662579699106E-01
C46 -4.159971623371E-01  3.506571636807E-01  2.276472722495E-01
H47 -3.005289770728E-01  6.849400765760E-02  2.952868684419E-01
H48  3.908510984877E-01 -1.455710162678E-01  1.742687808323E-01
C49  4.732189405880E-01 -4.026957993287E-01  8.269782074653E-02
C50 -3.941395980061E-01  2.583730031142E-01  1.457829741287E-01
C51  4.217232266401E-01 -2.851257788657E-01  1.015292636107E-02
C52 -4.464720615057E-01  3.755970673518E-01  7.212386655813E-02
H53 -3.342511862328E-01  9.260360979201E-02  1.379543995234E-01
H54  3.616100131637E-01 -1.194865981956E-01  1.797399358861E-02
C55  4.464720615057E-01 -3.755970673518E-01 -7.212386655813E-02
C56 -4.217232266401E-01  2.851257788657E-01 -1.015292636107E-02
C57  3.941395980061E-01 -2.583730031142E-01 -1.457829741287E-01
C58 -4.732189405880E-01  4.026957993287E-01 -8.269782074653E-02
H59 -3.616100131637E-01  1.194865981956E-01 -1.797399358861E-02
H60  3.342511862328E-01 -9.260360979201E-02 -1.379543995234E-01
C61  4.159971623371E-01 -3.506571636807E-01 -2.276472722495E-01
C62 -4.503973613370E-01  3.115007536711E-01 -1.662579699106E-01
C63  3.600090052439E-01 -2.342754163156E-01 -3.032864735484E-01
C64  4.952300176863E-01  4.272412466688E-01 -2.383483257309E-01
H65 -3.908510984877E-01  1.455710162678E-01 -1.742687808323E-01
H66  3.005289770728E-01 -6.849400765760E-02 -2.952868684419E-01
C67  3.792160268730E-01 -3.304469684844E-01 -3.836725835101E-01
C68 -4.871905711598E-01  3.333031555068E-01 -3.244406851050E-01
H69  3.352448202320E-01 -2.409521138613E-01 -4.404310193867E-01
C70  4.561045904422E-01  4.499422393267E-01 -3.944354899762E-01
H71 -4.290886403145E-01  1.666491786260E-01 -3.328828301201E-01
H72  4.683884193740E-01  3.749849151216E-01 -4.594104296394E-01


#===END
