###############################################################################
#
#                    CRYSTAL17 CIF FILE
#
###############################################################################

data_OPT_STEP_1

_symmetry_space_group_name_H-M 'P 1'
_cell_length_a      7.90000000
_cell_length_b      6.06000000
_cell_length_c     16.01000000
_cell_angle_alpha  101.900002
_cell_angle_beta  112.599998
_cell_angle_gamma   85.800003

loop_
_atom_site_label
_atom_site_fract_x
_atom_site_fract_y
_atom_site_fract_z
C1  1.143920954295E-01  1.401115933336E-02  4.028698715042E-01
H2  1.588794229105E-01  7.963339538172E-02  4.763783306539E-01
C3  1.427376504442E-01  1.373991086673E-01  3.472862954857E-01
C4  2.563699913477E-02 -2.011545696130E-01  3.652125744355E-01
H5  2.077407575528E-01  3.021161319279E-01  3.751676090769E-01
C6  8.601836182886E-02  5.415814928369E-02  2.498670678660E-01
H7  3.660622446432E-03 -2.970350892614E-01  4.103540387656E-01
C8 -3.230807204232E-02 -2.860152580784E-01  2.731097748885E-01
C9  1.163959591003E-01  1.741705480098E-01  1.919805102275E-01
C10 -4.670175579541E-03 -1.635117865170E-01  2.117326532902E-01
H11 -1.000423175093E-01 -4.485786887604E-01  2.445794224615E-01
H12  1.853760498319E-01  3.363822445780E-01  2.206307125900E-01
C13  5.952633320874E-02  9.059239435187E-02  9.611516872447E-02
C14 -6.178598924949E-02 -2.472340321226E-01  1.178047551752E-01
C15  8.974492184753E-02  2.104440092345E-01  3.710456749276E-02
C16 -3.260844743342E-02 -1.265237851518E-01  5.783255668764E-02
H17 -1.298524810571E-01 -4.099358374803E-01  8.933058691808E-02
H18  1.585444609898E-01  3.727521701016E-01  6.556371399166E-02
C19  3.260844743342E-02  1.265237851518E-01 -5.783255668764E-02
C20 -8.974492184753E-02 -2.104440092345E-01 -3.710456749276E-02
C21  6.178598924949E-02  2.472340321226E-01 -1.178047551752E-01
C22 -5.952633320874E-02 -9.059239435187E-02 -9.611516872447E-02
H23 -1.585444609898E-01 -3.727521701016E-01 -6.556371399166E-02
H24  1.298524810571E-01  4.099358374803E-01 -8.933058691808E-02
C25  4.670175579541E-03  1.635117865170E-01 -2.117326532902E-01
C26 -1.163959591003E-01 -1.741705480098E-01 -1.919805102275E-01
C27  3.230807204232E-02  2.860152580784E-01 -2.731097748885E-01
C28 -8.601836182886E-02 -5.415814928369E-02 -2.498670678660E-01
H29 -1.853760498319E-01 -3.363822445780E-01 -2.206307125900E-01
H30  1.000423175093E-01  4.485786887604E-01 -2.445794224615E-01
C31 -2.563699913477E-02  2.011545696130E-01 -3.652125744355E-01
C32 -1.427376504442E-01 -1.373991086673E-01 -3.472862954857E-01
H33 -3.660622446432E-03  2.970350892614E-01 -4.103540387656E-01
C34 -1.143920954295E-01 -1.401115933336E-02 -4.028698715042E-01
H35 -2.077407575528E-01 -3.021161319279E-01 -3.751676090769E-01
H36 -1.588794229105E-01 -7.963339538172E-02 -4.763783306539E-01
C37 -4.505926488096E-01 -4.204157495540E-01  3.970447005449E-01
H38 -4.624818576723E-01 -3.409074461075E-01  4.617087262289E-01
C39  4.912141833616E-01 -3.099203311632E-01  3.251204156498E-01
C40 -3.725844967056E-01  3.599018667854E-01  3.885150352984E-01
H41  4.326907927909E-01 -1.430718437896E-01  3.318022825034E-01
C42 -4.925561562198E-01 -4.104905658274E-01  2.393031000503E-01
H43 -3.261335552925E-01  2.758344728395E-01  4.469834648741E-01
C44 -3.553539858392E-01  2.569167616040E-01  3.082491576246E-01
C45  4.530972751529E-01 -2.995819193252E-01  1.657572619907E-01
C46 -4.140746007976E-01  3.664358738293E-01  2.305271082951E-01
H47 -2.953089205093E-01  9.085474655746E-02  3.019034549672E-01
H48  3.945825521533E-01 -1.326923637351E-01  1.724903864127E-01
C49  4.745659587781E-01 -3.968369537148E-01  8.240574192288E-02
C50 -3.943031885677E-01  2.676465440618E-01  1.487026928518E-01
C51  4.236415712103E-01 -2.835741409796E-01  8.585145744538E-03
C52 -4.470136127429E-01  3.798646232557E-01  7.351828119621E-02
H53 -3.347832138479E-01  1.012234509107E-01  1.422687459561E-01
H54  3.647448068626E-01 -1.168609660143E-01  1.524293599478E-02
C55  4.470136127429E-01 -3.798646232557E-01 -7.351828119621E-02
C56 -4.236415712103E-01  2.835741409796E-01 -8.585145744538E-03
C57  3.943031885677E-01 -2.676465440618E-01 -1.487026928518E-01
C58 -4.745659587781E-01  3.968369537148E-01 -8.240574192288E-02
H59 -3.647448068626E-01  1.168609660143E-01 -1.524293599478E-02
H60  3.347832138479E-01 -1.012234509107E-01 -1.422687459561E-01
C61  4.140746007976E-01 -3.664358738293E-01 -2.305271082951E-01
C62 -4.530972751529E-01  2.995819193252E-01 -1.657572619907E-01
C63  3.553539858392E-01 -2.569167616040E-01 -3.082491576246E-01
C64  4.925561562198E-01  4.104905658274E-01 -2.393031000503E-01
H65 -3.945825521533E-01  1.326923637351E-01 -1.724903864127E-01
H66  2.953089205093E-01 -9.085474655746E-02 -3.019034549672E-01
C67  3.725844967056E-01 -3.599018667854E-01 -3.885150352984E-01
C68 -4.912141833616E-01  3.099203311632E-01 -3.251204156498E-01
H69  3.261335552925E-01 -2.758344728395E-01 -4.469834648741E-01
C70  4.505926488096E-01  4.204157495540E-01 -3.970447005449E-01
H71 -4.326907927909E-01  1.430718437896E-01 -3.318022825034E-01
H72  4.624818576723E-01  3.409074461075E-01 -4.617087262289E-01


#===END

data_OPT_STEP_2

_symmetry_space_group_name_H-M 'P 1'
_cell_length_a      7.90000000
_cell_length_b      6.06000000
_cell_length_c     16.01000000
_cell_angle_alpha  101.900002
_cell_angle_beta  112.599998
_cell_angle_gamma   85.800003

loop_
_atom_site_label
_atom_site_fract_x
_atom_site_fract_y
_atom_site_fract_z
C1  1.143920954295E-01  1.401115933336E-02  4.028698715042E-01
H2  1.588794229105E-01  7.963339538172E-02  4.763783306539E-01
C3  1.427376504442E-01  1.373991086673E-01  3.472862954857E-01
C4  2.563699913477E-02 -2.011545696130E-01  3.652125744355E-01
H5  2.077407575528E-01  3.021161319279E-01  3.751676090769E-01
C6  8.601836182886E-02  5.415814928369E-02  2.498670678660E-01
H7  3.660622446432E-03 -2.970350892614E-01  4.103540387656E-01
C8 -3.230807204232E-02 -2.860152580784E-01  2.731097748885E-01
C9  1.163959591003E-01  1.741705480098E-01  1.919805102275E-01
C10 -4.670175579541E-03 -1.635117865170E-01  2.117326532902E-01
H11 -1.000423175093E-01 -4.485786887604E-01  2.445794224615E-01
H12  1.853760498319E-01  3.363822445780E-01  2.206307125900E-01
C13  5.952633320874E-02  9.059239435187E-02  9.611516872447E-02
C14 -6.178598924949E-02 -2.472340321226E-01  1.178047551752E-01
C15  8.974492184753E-02  2.104440092345E-01  3.710456749276E-02
C16 -3.260844743342E-02 -1.265237851518E-01  5.783255668764E-02
H17 -1.298524810571E-01 -4.099358374803E-01  8.933058691808E-02
H18  1.585444609898E-01  3.727521701016E-01  6.556371399166E-02
C19  3.260844743342E-02  1.265237851518E-01 -5.783255668764E-02
C20 -8.974492184753E-02 -2.104440092345E-01 -3.710456749276E-02
C21  6.178598924949E-02  2.472340321226E-01 -1.178047551752E-01
C22 -5.952633320874E-02 -9.059239435187E-02 -9.611516872447E-02
H23 -1.585444609898E-01 -3.727521701016E-01 -6.556371399166E-02
H24  1.298524810571E-01  4.099358374803E-01 -8.933058691808E-02
C25  4.670175579541E-03  1.635117865170E-01 -2.117326532902E-01
C26 -1.163959591003E-01 -1.741705480098E-01 -1.919805102275E-01
C27  3.230807204232E-02  2.860152580784E-01 -2.731097748885E-01
C28 -8.601836182886E-02 -5.415814928369E-02 -2.498670678660E-01
H29 -1.853760498319E-01 -3.363822445780E-01 -2.206307125900E-01
H30  1.000423175093E-01  4.485786887604E-01 -2.445794224615E-01
C31 -2.563699913477E-02  2.011545696130E-01 -3.652125744355E-01
C32 -1.427376504442E-01 -1.373991086673E-01 -3.472862954857E-01
H33 -3.660622446432E-03  2.970350892614E-01 -4.103540387656E-01
C34 -1.143920954295E-01 -1.401115933336E-02 -4.028698715042E-01
H35 -2.077407575528E-01 -3.021161319279E-01 -3.751676090769E-01
H36 -1.588794229105E-01 -7.963339538172E-02 -4.763783306539E-01
C37 -4.505926488096E-01 -4.204157495540E-01  3.970447005449E-01
H38 -4.624818576723E-01 -3.409074461075E-01  4.617087262289E-01
C39  4.912141833616E-01 -3.099203311632E-01  3.251204156498E-01
C40 -3.725844967056E-01  3.599018667854E-01  3.885150352984E-01
H41  4.326907927909E-01 -1.430718437896E-01  3.318022825034E-01
C42 -4.925561562198E-01 -4.104905658274E-01  2.393031000503E-01
H43 -3.261335552925E-01  2.758344728395E-01  4.469834648741E-01
C44 -3.553539858392E-01  2.569167616040E-01  3.082491576246E-01
C45  4.530972751529E-01 -2.995819193252E-01  1.657572619907E-01
C46 -4.140746007976E-01  3.664358738293E-01  2.305271082951E-01
H47 -2.953089205093E-01  9.085474655746E-02  3.019034549672E-01
H48  3.945825521533E-01 -1.326923637351E-01  1.724903864127E-01
C49  4.745659587781E-01 -3.968369537148E-01  8.240574192288E-02
C50 -3.943031885677E-01  2.676465440618E-01  1.487026928518E-01
C51  4.236415712103E-01 -2.835741409796E-01  8.585145744538E-03
C52 -4.470136127429E-01  3.798646232557E-01  7.351828119621E-02
H53 -3.347832138479E-01  1.012234509107E-01  1.422687459561E-01
H54  3.647448068626E-01 -1.168609660143E-01  1.524293599478E-02
C55  4.470136127429E-01 -3.798646232557E-01 -7.351828119621E-02
C56 -4.236415712103E-01  2.835741409796E-01 -8.585145744538E-03
C57  3.943031885677E-01 -2.676465440618E-01 -1.487026928518E-01
C58 -4.745659587781E-01  3.968369537148E-01 -8.240574192288E-02
H59 -3.647448068626E-01  1.168609660143E-01 -1.524293599478E-02
H60  3.347832138479E-01 -1.012234509107E-01 -1.422687459561E-01
C61  4.140746007976E-01 -3.664358738293E-01 -2.305271082951E-01
C62 -4.530972751529E-01  2.995819193252E-01 -1.657572619907E-01
C63  3.553539858392E-01 -2.569167616040E-01 -3.082491576246E-01
C64  4.925561562198E-01  4.104905658274E-01 -2.393031000503E-01
H65 -3.945825521533E-01  1.326923637351E-01 -1.724903864127E-01
H66  2.953089205093E-01 -9.085474655746E-02 -3.019034549672E-01
C67  3.725844967056E-01 -3.599018667854E-01 -3.885150352984E-01
C68 -4.912141833616E-01  3.099203311632E-01 -3.251204156498E-01
H69  3.261335552925E-01 -2.758344728395E-01 -4.469834648741E-01
C70  4.505926488096E-01  4.204157495540E-01 -3.970447005449E-01
H71 -4.326907927909E-01  1.430718437896E-01 -3.318022825034E-01
H72  4.624818576723E-01  3.409074461075E-01 -4.617087262289E-01


#===END
