###############################################################################
#
#                    CRYSTAL17 CIF FILE
#
###############################################################################

data_OPT_STEP_1

_symmetry_space_group_name_H-M 'P 1'
_cell_length_a      7.90000000
_cell_length_b      6.06000000
_cell_length_c     16.01000000
_cell_angle_alpha  101.900002
_cell_angle_beta  112.599998
_cell_angle_gamma   85.800003

loop_
_atom_site_label
_atom_site_fract_x
_atom_site_fract_y
_atom_site_fract_z
C1  1.260216501712E-01  4.550799954564E-02  4.062125254072E-01
H2  1.705192310345E-01  1.160467381271E-01  4.792676015982E-01
C3  1.519603774065E-01  1.638545914249E-01  3.484500905905E-01
C4  3.984020617271E-02 -1.714911083988E-01  3.715592493458E-01
H5  2.152201320264E-01  3.296824546750E-01  3.742573144559E-01
C6  9.469125965851E-02  7.392019474681E-02  2.515843630202E-01
H7  1.981306017659E-02 -2.629513338620E-01  4.185648734277E-01
C8 -1.838129309317E-02 -2.629047749954E-01  2.800734562025E-01
C9  1.211483637687E-01  1.884381702410E-01  1.910511089526E-01
C10  6.458218799907E-03 -1.455741205130E-01  2.165820266252E-01
H11 -8.460266535790E-02 -4.267225401031E-01  2.535593467110E-01
H12  1.882065300732E-01  3.519860178157E-01  2.171233591987E-01
C13  6.221637345647E-02  9.794748549805E-02  9.566497345404E-02
C14 -5.207402353663E-02 -2.361223120198E-01  1.232789473017E-01
C15  8.721800359948E-02  2.119794226551E-01  3.370537370567E-02
C16 -2.743299646544E-02 -1.210172383038E-01  6.067289505780E-02
H17 -1.183909735507E-01 -4.000765006203E-01  9.732074240833E-02
H18  1.541524157213E-01  3.755699671491E-01  5.933771098687E-02
C19  2.743299646544E-02  1.210172383038E-01 -6.067289505780E-02
C20 -8.721800359948E-02 -2.119794226551E-01 -3.370537370567E-02
C21  5.207402353663E-02  2.361223120198E-01 -1.232789473017E-01
C22 -6.221637345647E-02 -9.794748549805E-02 -9.566497345404E-02
H23 -1.541524157213E-01 -3.755699671491E-01 -5.933771098687E-02
H24  1.183909735507E-01  4.000765006203E-01 -9.732074240833E-02
C25 -6.458218799907E-03  1.455741205130E-01 -2.165820266252E-01
C26 -1.211483637687E-01 -1.884381702410E-01 -1.910511089526E-01
C27  1.838129309317E-02  2.629047749954E-01 -2.800734562025E-01
C28 -9.469125965851E-02 -7.392019474681E-02 -2.515843630202E-01
H29 -1.882065300732E-01 -3.519860178157E-01 -2.171233591987E-01
H30  8.460266535790E-02  4.267225401031E-01 -2.535593467110E-01
C31 -3.984020617271E-02  1.714911083988E-01 -3.715592493458E-01
C32 -1.519603774065E-01 -1.638545914249E-01 -3.484500905904E-01
H33 -1.981306017659E-02  2.629513338620E-01 -4.185648734277E-01
C34 -1.260216501712E-01 -4.550799954564E-02 -4.062125254072E-01
H35 -2.152201320264E-01 -3.296824546750E-01 -3.742573144559E-01
H36 -1.705192310345E-01 -1.160467381271E-01 -4.792676015982E-01
C37 -4.486748770977E-01 -4.248350844976E-01  3.965034878062E-01
H38 -4.637846179383E-01 -3.461646249791E-01  4.604330868870E-01
C39  4.965535826844E-01 -3.143102930928E-01  3.248127960761E-01
C40 -3.698868280194E-01  3.557945777576E-01  3.884122918631E-01
H41  4.376005403604E-01 -1.474727828611E-01  3.306553824970E-01
C42 -4.842663640516E-01 -4.152248016648E-01  2.399272209986E-01
H43 -3.261614609942E-01  2.710553244265E-01  4.466067015830E-01
C44 -3.488140133843E-01  2.530660564200E-01  3.090168907778E-01
C45  4.604604560790E-01 -3.034851267731E-01  1.668666457990E-01
C46 -4.053515861530E-01  3.618873308298E-01  2.311094892263E-01
H47 -2.883435706982E-01  8.713083722508E-02  3.035236296930E-01
H48  4.017939247810E-01 -1.368122797706E-01  1.742421969957E-01
C49  4.792184662214E-01 -3.994328142443E-01  8.305569109878E-02
C50 -3.863781536904E-01  2.644519505724E-01  1.488817595095E-01
C51  4.235507659088E-01 -2.839792649016E-01  9.730914236856E-03
C52 -4.420622152376E-01  3.774614384550E-01  7.366247184053E-02
H53 -3.272567283956E-01  9.799764851165E-02  1.416594551150E-01
H54  3.649427178896E-01 -1.175470410510E-01  1.830585161041E-02
C55  4.420622152376E-01 -3.774614384550E-01 -7.366247184053E-02
C56 -4.235507659088E-01  2.839792649016E-01 -9.730914236856E-03
C57  3.863781536904E-01 -2.644519505724E-01 -1.488817595095E-01
C58 -4.792184662214E-01  3.994328142443E-01 -8.305569109878E-02
H59 -3.649427178896E-01  1.175470410510E-01 -1.830585161041E-02
H60  3.272567283956E-01 -9.799764851165E-02 -1.416594551150E-01
C61  4.053515861530E-01 -3.618873308298E-01 -2.311094892263E-01
C62 -4.604604560790E-01  3.034851267731E-01 -1.668666457990E-01
C63  3.488140133843E-01 -2.530660564200E-01 -3.090168907778E-01
C64  4.842663640516E-01  4.152248016648E-01 -2.399272209986E-01
H65 -4.017939247810E-01  1.368122797706E-01 -1.742421969957E-01
H66  2.883435706982E-01 -8.713083722508E-02 -3.035236296930E-01
C67  3.698868280194E-01 -3.557945777576E-01 -3.884122918631E-01
C68 -4.965535826844E-01  3.143102930928E-01 -3.248127960761E-01
H69  3.261614609942E-01 -2.710553244265E-01 -4.466067015830E-01
C70  4.486748770977E-01  4.248350844976E-01 -3.965034878062E-01
H71 -4.376005403604E-01  1.474727828611E-01 -3.306553824970E-01
H72  4.637846179383E-01  3.461646249791E-01 -4.604330868870E-01


#===END

data_OPT_STEP_2

_symmetry_space_group_name_H-M 'P 1'
_cell_length_a      7.90000000
_cell_length_b      6.06000000
_cell_length_c     16.01000000
_cell_angle_alpha  101.900002
_cell_angle_beta  112.599998
_cell_angle_gamma   85.800003

loop_
_atom_site_label
_atom_site_fract_x
_atom_site_fract_y
_atom_site_fract_z
C1  1.260216501712E-01  4.550799954564E-02  4.062125254072E-01
H2  1.705192310345E-01  1.160467381271E-01  4.792676015982E-01
C3  1.519603774065E-01  1.638545914249E-01  3.484500905905E-01
C4  3.984020617271E-02 -1.714911083988E-01  3.715592493458E-01
H5  2.152201320264E-01  3.296824546750E-01  3.742573144559E-01
C6  9.469125965851E-02  7.392019474681E-02  2.515843630202E-01
H7  1.981306017659E-02 -2.629513338620E-01  4.185648734277E-01
C8 -1.838129309317E-02 -2.629047749954E-01  2.800734562025E-01
C9  1.211483637687E-01  1.884381702410E-01  1.910511089526E-01
C10  6.458218799907E-03 -1.455741205130E-01  2.165820266252E-01
H11 -8.460266535790E-02 -4.267225401031E-01  2.535593467110E-01
H12  1.882065300732E-01  3.519860178157E-01  2.171233591987E-01
C13  6.221637345647E-02  9.794748549805E-02  9.566497345404E-02
C14 -5.207402353663E-02 -2.361223120198E-01  1.232789473017E-01
C15  8.721800359948E-02  2.119794226551E-01  3.370537370567E-02
C16 -2.743299646544E-02 -1.210172383038E-01  6.067289505780E-02
H17 -1.183909735507E-01 -4.000765006203E-01  9.732074240833E-02
H18  1.541524157213E-01  3.755699671491E-01  5.933771098687E-02
C19  2.743299646544E-02  1.210172383038E-01 -6.067289505780E-02
C20 -8.721800359948E-02 -2.119794226551E-01 -3.370537370567E-02
C21  5.207402353663E-02  2.361223120198E-01 -1.232789473017E-01
C22 -6.221637345647E-02 -9.794748549805E-02 -9.566497345404E-02
H23 -1.541524157213E-01 -3.755699671491E-01 -5.933771098687E-02
H24  1.183909735507E-01  4.000765006203E-01 -9.732074240833E-02
C25 -6.458218799907E-03  1.455741205130E-01 -2.165820266252E-01
C26 -1.211483637687E-01 -1.884381702410E-01 -1.910511089526E-01
C27  1.838129309317E-02  2.629047749954E-01 -2.800734562025E-01
C28 -9.469125965851E-02 -7.392019474681E-02 -2.515843630202E-01
H29 -1.882065300732E-01 -3.519860178157E-01 -2.171233591987E-01
H30  8.460266535790E-02  4.267225401031E-01 -2.535593467110E-01
C31 -3.984020617271E-02  1.714911083988E-01 -3.715592493458E-01
C32 -1.519603774065E-01 -1.638545914249E-01 -3.484500905904E-01
H33 -1.981306017659E-02  2.629513338620E-01 -4.185648734277E-01
C34 -1.260216501712E-01 -4.550799954564E-02 -4.062125254072E-01
H35 -2.152201320264E-01 -3.296824546750E-01 -3.742573144559E-01
H36 -1.705192310345E-01 -1.160467381271E-01 -4.792676015982E-01
C37 -4.486748770977E-01 -4.248350844976E-01  3.965034878062E-01
H38 -4.637846179383E-01 -3.461646249791E-01  4.604330868870E-01
C39  4.965535826844E-01 -3.143102930928E-01  3.248127960761E-01
C40 -3.698868280194E-01  3.557945777576E-01  3.884122918631E-01
H41  4.376005403604E-01 -1.474727828611E-01  3.306553824970E-01
C42 -4.842663640516E-01 -4.152248016648E-01  2.399272209986E-01
H43 -3.261614609942E-01  2.710553244265E-01  4.466067015830E-01
C44 -3.488140133843E-01  2.530660564200E-01  3.090168907778E-01
C45  4.604604560790E-01 -3.034851267731E-01  1.668666457990E-01
C46 -4.053515861530E-01  3.618873308298E-01  2.311094892263E-01
H47 -2.883435706982E-01  8.713083722508E-02  3.035236296930E-01
H48  4.017939247810E-01 -1.368122797706E-01  1.742421969957E-01
C49  4.792184662214E-01 -3.994328142443E-01  8.305569109878E-02
C50 -3.863781536904E-01  2.644519505724E-01  1.488817595095E-01
C51  4.235507659088E-01 -2.839792649016E-01  9.730914236856E-03
C52 -4.420622152376E-01  3.774614384550E-01  7.366247184053E-02
H53 -3.272567283956E-01  9.799764851165E-02  1.416594551150E-01
H54  3.649427178896E-01 -1.175470410510E-01  1.830585161041E-02
C55  4.420622152376E-01 -3.774614384550E-01 -7.366247184053E-02
C56 -4.235507659088E-01  2.839792649016E-01 -9.730914236856E-03
C57  3.863781536904E-01 -2.644519505724E-01 -1.488817595095E-01
C58 -4.792184662214E-01  3.994328142443E-01 -8.305569109878E-02
H59 -3.649427178896E-01  1.175470410510E-01 -1.830585161041E-02
H60  3.272567283956E-01 -9.799764851165E-02 -1.416594551150E-01
C61  4.053515861530E-01 -3.618873308298E-01 -2.311094892263E-01
C62 -4.604604560790E-01  3.034851267731E-01 -1.668666457990E-01
C63  3.488140133843E-01 -2.530660564200E-01 -3.090168907778E-01
C64  4.842663640516E-01  4.152248016648E-01 -2.399272209986E-01
H65 -4.017939247810E-01  1.368122797706E-01 -1.742421969957E-01
H66  2.883435706982E-01 -8.713083722508E-02 -3.035236296930E-01
C67  3.698868280194E-01 -3.557945777576E-01 -3.884122918631E-01
C68 -4.965535826844E-01  3.143102930928E-01 -3.248127960761E-01
H69  3.261614609942E-01 -2.710553244265E-01 -4.466067015830E-01
C70  4.486748770977E-01  4.248350844976E-01 -3.965034878062E-01
H71 -4.376005403604E-01  1.474727828611E-01 -3.306553824970E-01
H72  4.637846179383E-01  3.461646249791E-01 -4.604330868870E-01


#===END
