###############################################################################
#
#                    CRYSTAL17 CIF FILE
#
###############################################################################

data_OPT_STEP_1

_symmetry_space_group_name_H-M 'P 1'
_cell_length_a      7.90000000
_cell_length_b      6.06000000
_cell_length_c     16.01000000
_cell_angle_alpha  101.900002
_cell_angle_beta  112.599998
_cell_angle_gamma   85.800003

loop_
_atom_site_label
_atom_site_fract_x
_atom_site_fract_y
_atom_site_fract_z
C1  1.276615418296E-01  4.740826389123E-02  4.062635789027E-01
H2  1.714241127452E-01  1.189998461777E-01  4.791762889458E-01
C3  1.540428913501E-01  1.641784583509E-01  3.481802230704E-01
C4  4.163303550941E-02 -1.696795482206E-01  3.720707558847E-01
H5  2.171130219169E-01  3.301621992179E-01  3.734510986368E-01
C6  9.663333605310E-02  7.277457553125E-02  2.514895824088E-01
H7  2.106374504430E-02 -2.598047160915E-01  4.193257371540E-01
C8 -1.599569151027E-02 -2.629813118777E-01  2.807615918621E-01
C9  1.219763381108E-01  1.875255864099E-01  1.908040603507E-01
C10  8.792575732171E-03 -1.469775290064E-01  2.168524549219E-01
H11 -8.220583165709E-02 -4.268970496838E-01  2.547388928970E-01
H12  1.883274013728E-01  3.514772037348E-01  2.167269859851E-01
C13  6.243683648598E-02  9.720013047291E-02  9.548760099635E-02
C14 -4.991226314889E-02 -2.378935520321E-01  1.235616817609E-01
C15  8.616496020506E-02  2.125895909689E-01  3.359294901371E-02
C16 -2.617555718321E-02 -1.223569216721E-01  6.079240066917E-02
H17 -1.161202643868E-01 -4.019445806905E-01  9.770066675737E-02
H18  1.524953420926E-01  3.765135399126E-01  5.944349164992E-02
C19  2.617555718321E-02  1.223569216721E-01 -6.079240066917E-02
C20 -8.616496020506E-02 -2.125895909689E-01 -3.359294901371E-02
C21  4.991226314889E-02  2.378935520321E-01 -1.235616817609E-01
C22 -6.243683648598E-02 -9.720013047291E-02 -9.548760099635E-02
H23 -1.524953420926E-01 -3.765135399126E-01 -5.944349164992E-02
H24  1.161202643868E-01  4.019445806905E-01 -9.770066675737E-02
C25 -8.792575732171E-03  1.469775290064E-01 -2.168524549219E-01
C26 -1.219763381108E-01 -1.875255864099E-01 -1.908040603507E-01
C27  1.599569151027E-02  2.629813118777E-01 -2.807615918621E-01
C28 -9.663333605310E-02 -7.277457553125E-02 -2.514895824088E-01
H29 -1.883274013728E-01 -3.514772037348E-01 -2.167269859851E-01
H30  8.220583165709E-02  4.268970496838E-01 -2.547388928970E-01
C31 -4.163303550941E-02  1.696795482206E-01 -3.720707558847E-01
C32 -1.540428913501E-01 -1.641784583509E-01 -3.481802230704E-01
H33 -2.106374504430E-02  2.598047160915E-01 -4.193257371540E-01
C34 -1.276615418296E-01 -4.740826389123E-02 -4.062635789027E-01
H35 -2.171130219169E-01 -3.301621992179E-01 -3.734510986368E-01
H36 -1.714241127452E-01 -1.189998461777E-01 -4.791762889458E-01
C37 -4.389908428823E-01 -4.223740570261E-01  3.985340639193E-01
H38 -4.469470002906E-01 -3.421793716650E-01  4.640611608397E-01
C39 -4.991251998442E-01 -3.112373727803E-01  3.267884360707E-01
C40 -3.655039145100E-01  3.555198030927E-01  3.884790758641E-01
H41  4.453936762875E-01 -1.427848523159E-01  3.345958776290E-01
C42 -4.890391151321E-01 -4.131816881203E-01  2.397103161980E-01
H43 -3.181411813700E-01  2.707550005720E-01  4.467441930464E-01
C44 -3.545101755699E-01  2.511092898493E-01  3.068931543423E-01
C45  4.551105409338E-01 -3.017229605954E-01  1.663714754826E-01
C46 -4.144467312791E-01  3.616621955010E-01  2.295340612111E-01
H47 -2.975282714434E-01  8.351759289683E-02  2.994003378423E-01
H48  3.986920160528E-01 -1.337760459592E-01  1.739596429545E-01
C49  4.744880784792E-01 -3.983350807639E-01  8.251294065994E-02
C50 -3.980923291823E-01  2.628411726489E-01  1.469941490943E-01
C51  4.256575013137E-01 -2.827398635552E-01  9.525858486882E-03
C52 -4.493885412143E-01  3.771725822083E-01  7.258561645058E-02
H53 -3.405252775722E-01  9.548722120331E-02  1.397207876473E-01
H54  3.680861658217E-01 -1.153906467032E-01  1.687432276778E-02
C55  4.493885412143E-01 -3.771725822083E-01 -7.258561645058E-02
C56 -4.256575013137E-01  2.827398635552E-01 -9.525858486882E-03
C57  3.980923291823E-01 -2.628411726489E-01 -1.469941490943E-01
C58 -4.744880784792E-01  3.983350807639E-01 -8.251294065994E-02
H59 -3.680861658217E-01  1.153906467032E-01 -1.687432276778E-02
H60  3.405252775722E-01 -9.548722120331E-02 -1.397207876473E-01
C61  4.144467312791E-01 -3.616621955010E-01 -2.295340612111E-01
C62 -4.551105409338E-01  3.017229605954E-01 -1.663714754826E-01
C63  3.545101755699E-01 -2.511092898493E-01 -3.068931543423E-01
C64  4.890391151321E-01  4.131816881203E-01 -2.397103161980E-01
H65 -3.986920160528E-01  1.337760459592E-01 -1.739596429545E-01
H66  2.975282714434E-01 -8.351759289683E-02 -2.994003378423E-01
C67  3.655039145100E-01 -3.555198030927E-01 -3.884790758641E-01
C68  4.991251998442E-01  3.112373727803E-01 -3.267884360707E-01
H69  3.181411813700E-01 -2.707550005720E-01 -4.467441930464E-01
C70  4.389908428823E-01  4.223740570261E-01 -3.985340639193E-01
H71 -4.453936762875E-01  1.427848523159E-01 -3.345958776290E-01
H72  4.469470002906E-01  3.421793716650E-01 -4.640611608397E-01


#===END

data_OPT_STEP_2

_symmetry_space_group_name_H-M 'P 1'
_cell_length_a      7.90000000
_cell_length_b      6.06000000
_cell_length_c     16.01000000
_cell_angle_alpha  101.900002
_cell_angle_beta  112.599998
_cell_angle_gamma   85.800003

loop_
_atom_site_label
_atom_site_fract_x
_atom_site_fract_y
_atom_site_fract_z
C1  1.276615418296E-01  4.740826389123E-02  4.062635789027E-01
H2  1.714241127452E-01  1.189998461777E-01  4.791762889458E-01
C3  1.540428913501E-01  1.641784583509E-01  3.481802230704E-01
C4  4.163303550941E-02 -1.696795482206E-01  3.720707558847E-01
H5  2.171130219169E-01  3.301621992179E-01  3.734510986368E-01
C6  9.663333605310E-02  7.277457553125E-02  2.514895824088E-01
H7  2.106374504430E-02 -2.598047160915E-01  4.193257371540E-01
C8 -1.599569151027E-02 -2.629813118777E-01  2.807615918621E-01
C9  1.219763381108E-01  1.875255864099E-01  1.908040603507E-01
C10  8.792575732171E-03 -1.469775290064E-01  2.168524549219E-01
H11 -8.220583165709E-02 -4.268970496838E-01  2.547388928970E-01
H12  1.883274013728E-01  3.514772037348E-01  2.167269859851E-01
C13  6.243683648598E-02  9.720013047291E-02  9.548760099635E-02
C14 -4.991226314889E-02 -2.378935520321E-01  1.235616817609E-01
C15  8.616496020506E-02  2.125895909689E-01  3.359294901371E-02
C16 -2.617555718321E-02 -1.223569216721E-01  6.079240066917E-02
H17 -1.161202643868E-01 -4.019445806905E-01  9.770066675737E-02
H18  1.524953420926E-01  3.765135399126E-01  5.944349164992E-02
C19  2.617555718321E-02  1.223569216721E-01 -6.079240066917E-02
C20 -8.616496020506E-02 -2.125895909689E-01 -3.359294901371E-02
C21  4.991226314889E-02  2.378935520321E-01 -1.235616817609E-01
C22 -6.243683648598E-02 -9.720013047291E-02 -9.548760099635E-02
H23 -1.524953420926E-01 -3.765135399126E-01 -5.944349164992E-02
H24  1.161202643868E-01  4.019445806905E-01 -9.770066675737E-02
C25 -8.792575732171E-03  1.469775290064E-01 -2.168524549219E-01
C26 -1.219763381108E-01 -1.875255864099E-01 -1.908040603507E-01
C27  1.599569151027E-02  2.629813118777E-01 -2.807615918621E-01
C28 -9.663333605310E-02 -7.277457553125E-02 -2.514895824088E-01
H29 -1.883274013728E-01 -3.514772037348E-01 -2.167269859851E-01
H30  8.220583165709E-02  4.268970496838E-01 -2.547388928970E-01
C31 -4.163303550941E-02  1.696795482206E-01 -3.720707558847E-01
C32 -1.540428913501E-01 -1.641784583509E-01 -3.481802230704E-01
H33 -2.106374504430E-02  2.598047160915E-01 -4.193257371540E-01
C34 -1.276615418296E-01 -4.740826389123E-02 -4.062635789027E-01
H35 -2.171130219169E-01 -3.301621992179E-01 -3.734510986368E-01
H36 -1.714241127452E-01 -1.189998461777E-01 -4.791762889458E-01
C37 -4.389908428823E-01 -4.223740570261E-01  3.985340639193E-01
H38 -4.469470002906E-01 -3.421793716650E-01  4.640611608397E-01
C39 -4.991251998442E-01 -3.112373727803E-01  3.267884360707E-01
C40 -3.655039145100E-01  3.555198030927E-01  3.884790758641E-01
H41  4.453936762875E-01 -1.427848523159E-01  3.345958776290E-01
C42 -4.890391151321E-01 -4.131816881203E-01  2.397103161980E-01
H43 -3.181411813700E-01  2.707550005720E-01  4.467441930464E-01
C44 -3.545101755699E-01  2.511092898493E-01  3.068931543423E-01
C45  4.551105409338E-01 -3.017229605954E-01  1.663714754826E-01
C46 -4.144467312791E-01  3.616621955010E-01  2.295340612111E-01
H47 -2.975282714434E-01  8.351759289683E-02  2.994003378423E-01
H48  3.986920160528E-01 -1.337760459592E-01  1.739596429545E-01
C49  4.744880784792E-01 -3.983350807639E-01  8.251294065994E-02
C50 -3.980923291823E-01  2.628411726489E-01  1.469941490943E-01
C51  4.256575013137E-01 -2.827398635552E-01  9.525858486882E-03
C52 -4.493885412143E-01  3.771725822083E-01  7.258561645058E-02
H53 -3.405252775722E-01  9.548722120331E-02  1.397207876473E-01
H54  3.680861658217E-01 -1.153906467032E-01  1.687432276778E-02
C55  4.493885412143E-01 -3.771725822083E-01 -7.258561645058E-02
C56 -4.256575013137E-01  2.827398635552E-01 -9.525858486882E-03
C57  3.980923291823E-01 -2.628411726489E-01 -1.469941490943E-01
C58 -4.744880784792E-01  3.983350807639E-01 -8.251294065994E-02
H59 -3.680861658217E-01  1.153906467032E-01 -1.687432276778E-02
H60  3.405252775722E-01 -9.548722120331E-02 -1.397207876473E-01
C61  4.144467312791E-01 -3.616621955010E-01 -2.295340612111E-01
C62 -4.551105409338E-01  3.017229605954E-01 -1.663714754826E-01
C63  3.545101755699E-01 -2.511092898493E-01 -3.068931543423E-01
C64  4.890391151321E-01  4.131816881203E-01 -2.397103161980E-01
H65 -3.986920160528E-01  1.337760459592E-01 -1.739596429545E-01
H66  2.975282714434E-01 -8.351759289683E-02 -2.994003378423E-01
C67  3.655039145100E-01 -3.555198030927E-01 -3.884790758641E-01
C68  4.991251998442E-01  3.112373727803E-01 -3.267884360707E-01
H69  3.181411813700E-01 -2.707550005720E-01 -4.467441930464E-01
C70  4.389908428823E-01  4.223740570261E-01 -3.985340639193E-01
H71 -4.453936762875E-01  1.427848523159E-01 -3.345958776290E-01
H72  4.469470002906E-01  3.421793716650E-01 -4.640611608397E-01


#===END
