###############################################################################
#
#                    CRYSTAL17 CIF FILE
#
###############################################################################

data_OPT_STEP_1

_symmetry_space_group_name_H-M 'P 1'
_cell_length_a      7.90000000
_cell_length_b      6.06000000
_cell_length_c     16.01000000
_cell_angle_alpha  101.900002
_cell_angle_beta  112.599998
_cell_angle_gamma   85.800003

loop_
_atom_site_label
_atom_site_fract_x
_atom_site_fract_y
_atom_site_fract_z
C1  1.315739197434E-01  4.726237880378E-02  4.067197683151E-01
H2  1.795030569228E-01  1.176934657315E-01  4.798950753869E-01
C3  1.614143033732E-01  1.603356551080E-01  3.484532708298E-01
C4  3.554249240436E-02 -1.639706422267E-01  3.721199842963E-01
H5  2.307110424287E-01  3.227243008274E-01  3.736547565999E-01
C6  9.836921124435E-02  7.041086332942E-02  2.514373327548E-01
H7  1.232139055235E-02 -2.514890464007E-01  4.194591318132E-01
C8 -2.653858111363E-02 -2.561694860823E-01  2.805466703892E-01
C9  1.254250901730E-01  1.829579717933E-01  1.906541051539E-01
C10  2.718492236836E-03 -1.446409147990E-01  2.164743354979E-01
H11 -9.817837849952E-02 -4.168336053249E-01  2.545929679659E-01
H12  1.949648815450E-01  3.449697573058E-01  2.164962320576E-01
C13  6.279084001645E-02  9.336128130303E-02  9.523519851561E-02
C14 -5.759343742504E-02 -2.357944424180E-01  1.230463344005E-01
C15  8.668043900835E-02  2.088815346354E-01  3.353124709030E-02
C16 -2.936786968345E-02 -1.240569176974E-01  6.026556780131E-02
H17 -1.276127200653E-01 -3.975115883452E-01  9.724035452900E-02
H18  1.532090743009E-01  3.727182515164E-01  5.951287435563E-02
C19  2.607039469429E-02  1.194642525552E-01 -6.084485629107E-02
C20 -8.773531725479E-02 -2.151348839112E-01 -3.415053554296E-02
C21  4.725310912002E-02  2.383750164232E-01 -1.232321858393E-01
C22 -6.094410678987E-02 -1.011082449368E-01 -9.578331254797E-02
H23 -1.552130070845E-01 -3.783822966802E-01 -6.015218051851E-02
H24  1.099798010919E-01  4.044725575172E-01 -9.700591457070E-02
C25 -9.703259582842E-03  1.484497884814E-01 -2.164839903535E-01
C26 -1.160876459462E-01 -1.921047747665E-01 -1.910016757627E-01
C27  1.007802639713E-02  2.699842524111E-01 -2.800705921740E-01
C28 -9.052373577891E-02 -7.546664521148E-02 -2.512127587170E-01
H29 -1.805564248362E-01 -3.572435489874E-01 -2.173904528520E-01
H30  7.077234886520E-02  4.370344149995E-01 -2.537034177631E-01
C31 -4.460361953634E-02  1.775497584979E-01 -3.713592453525E-01
C32 -1.427154963560E-01 -1.670485375470E-01 -3.477350154326E-01
H33 -2.797376261615E-02  2.718250760205E-01 -4.184182514646E-01
C34 -1.210443452956E-01 -4.516520869988E-02 -4.055526694185E-01
H35 -1.999163758967E-01 -3.363470579106E-01 -3.734459122339E-01
H36 -1.624069295282E-01 -1.168975299441E-01 -4.783966811505E-01
C37 -4.488036374521E-01 -4.284995742320E-01  3.966718973021E-01
H38 -4.629329134446E-01 -3.517888030131E-01  4.610429610817E-01
C39  4.951100869585E-01 -3.149911013941E-01  3.257319754993E-01
C40 -3.698376750608E-01  3.524737244505E-01  3.875698324592E-01
H41  4.361431138867E-01 -1.485384310441E-01  3.329481899876E-01
C42 -4.864209572883E-01 -4.121263943360E-01  2.402083648222E-01
H43 -3.258550188320E-01  2.654665204185E-01  4.450888025804E-01
C44 -3.493028905239E-01  2.534943667296E-01  3.077734987740E-01
C45  4.586741747770E-01 -2.999378763584E-01  1.670854758399E-01
C46 -4.066302335001E-01  3.656125965790E-01  2.309261643092E-01
H47 -2.887088615734E-01  8.794626778553E-02  3.009719785753E-01
H48  3.994120198767E-01 -1.335605430000E-01  1.741890212748E-01
C49  4.789291816692E-01 -3.958547788635E-01  8.336072185235E-02
C50 -3.864339471291E-01  2.690669300623E-01  1.490642740541E-01
C51  4.247976518816E-01 -2.829848929207E-01  9.396482969696E-03
C52 -4.417464148597E-01  3.813891760799E-01  7.394744971001E-02
H53 -3.265746072604E-01  1.029633825637E-01  1.421477102756E-01
H54  3.659150446130E-01 -1.163620979567E-01  1.656086196846E-02
C55  4.444027782129E-01 -3.795400203559E-01 -7.353806475719E-02
C56 -4.217561517780E-01  2.850495004897E-01 -8.929089382602E-03
C57  3.888434935659E-01 -2.674063635781E-01 -1.487335514881E-01
C58 -4.772217544656E-01  3.971756383793E-01 -8.311707554993E-02
H59 -3.626180778108E-01  1.185902333267E-01 -1.604732692054E-02
H60  3.303186230556E-01 -1.005496286177E-01 -1.415879020540E-01
C61  4.065336102221E-01 -3.654120249296E-01 -2.310510364812E-01
C62 -4.594272939400E-01  2.997722104966E-01 -1.673070475807E-01
C63  3.490908951053E-01 -2.534084223356E-01 -3.079429096144E-01
C64  4.843505121619E-01  4.111821542940E-01 -2.406686902148E-01
H65 -4.008122303177E-01  1.329875308434E-01 -1.745092202520E-01
H66  2.895242064852E-01 -8.725694888019E-02 -3.009493242009E-01
C67  3.684255948616E-01 -3.531578182111E-01 -3.879593870740E-01
C68 -4.986539573249E-01  3.131208702449E-01 -3.264597643431E-01
H69  3.242708358558E-01 -2.665104478867E-01 -4.455899544508E-01
C70  4.461880236693E-01  4.271876508460E-01 -3.971991459679E-01
H71 -4.404633350847E-01  1.461459637125E-01 -3.337971719478E-01
H72  4.607530390842E-01  3.506697021631E-01 -4.614659377373E-01


#===END

data_OPT_STEP_2

_symmetry_space_group_name_H-M 'P 1'
_cell_length_a      7.90000000
_cell_length_b      6.06000000
_cell_length_c     16.01000000
_cell_angle_alpha  101.900002
_cell_angle_beta  112.599998
_cell_angle_gamma   85.800003

loop_
_atom_site_label
_atom_site_fract_x
_atom_site_fract_y
_atom_site_fract_z
C1  1.315739197434E-01  4.726237880378E-02  4.067197683151E-01
H2  1.795030569228E-01  1.176934657315E-01  4.798950753869E-01
C3  1.614143033732E-01  1.603356551080E-01  3.484532708298E-01
C4  3.554249240436E-02 -1.639706422267E-01  3.721199842963E-01
H5  2.307110424287E-01  3.227243008274E-01  3.736547565999E-01
C6  9.836921124435E-02  7.041086332942E-02  2.514373327548E-01
H7  1.232139055235E-02 -2.514890464007E-01  4.194591318132E-01
C8 -2.653858111363E-02 -2.561694860823E-01  2.805466703892E-01
C9  1.254250901730E-01  1.829579717933E-01  1.906541051539E-01
C10  2.718492236836E-03 -1.446409147990E-01  2.164743354979E-01
H11 -9.817837849952E-02 -4.168336053249E-01  2.545929679659E-01
H12  1.949648815450E-01  3.449697573058E-01  2.164962320576E-01
C13  6.279084001645E-02  9.336128130303E-02  9.523519851561E-02
C14 -5.759343742504E-02 -2.357944424180E-01  1.230463344005E-01
C15  8.668043900835E-02  2.088815346354E-01  3.353124709030E-02
C16 -2.936786968345E-02 -1.240569176974E-01  6.026556780131E-02
H17 -1.276127200653E-01 -3.975115883452E-01  9.724035452900E-02
H18  1.532090743009E-01  3.727182515164E-01  5.951287435563E-02
C19  2.607039469429E-02  1.194642525552E-01 -6.084485629107E-02
C20 -8.773531725479E-02 -2.151348839112E-01 -3.415053554296E-02
C21  4.725310912002E-02  2.383750164232E-01 -1.232321858393E-01
C22 -6.094410678987E-02 -1.011082449368E-01 -9.578331254797E-02
H23 -1.552130070845E-01 -3.783822966802E-01 -6.015218051851E-02
H24  1.099798010919E-01  4.044725575172E-01 -9.700591457070E-02
C25 -9.703259582842E-03  1.484497884814E-01 -2.164839903535E-01
C26 -1.160876459462E-01 -1.921047747665E-01 -1.910016757627E-01
C27  1.007802639713E-02  2.699842524111E-01 -2.800705921740E-01
C28 -9.052373577891E-02 -7.546664521148E-02 -2.512127587170E-01
H29 -1.805564248362E-01 -3.572435489874E-01 -2.173904528520E-01
H30  7.077234886520E-02  4.370344149995E-01 -2.537034177631E-01
C31 -4.460361953634E-02  1.775497584979E-01 -3.713592453525E-01
C32 -1.427154963560E-01 -1.670485375470E-01 -3.477350154326E-01
H33 -2.797376261615E-02  2.718250760205E-01 -4.184182514646E-01
C34 -1.210443452956E-01 -4.516520869988E-02 -4.055526694185E-01
H35 -1.999163758967E-01 -3.363470579106E-01 -3.734459122339E-01
H36 -1.624069295282E-01 -1.168975299441E-01 -4.783966811505E-01
C37 -4.488036374521E-01 -4.284995742320E-01  3.966718973021E-01
H38 -4.629329134446E-01 -3.517888030131E-01  4.610429610817E-01
C39  4.951100869585E-01 -3.149911013941E-01  3.257319754993E-01
C40 -3.698376750608E-01  3.524737244505E-01  3.875698324592E-01
H41  4.361431138867E-01 -1.485384310441E-01  3.329481899876E-01
C42 -4.864209572883E-01 -4.121263943360E-01  2.402083648222E-01
H43 -3.258550188320E-01  2.654665204185E-01  4.450888025804E-01
C44 -3.493028905239E-01  2.534943667296E-01  3.077734987740E-01
C45  4.586741747770E-01 -2.999378763584E-01  1.670854758399E-01
C46 -4.066302335001E-01  3.656125965790E-01  2.309261643092E-01
H47 -2.887088615734E-01  8.794626778553E-02  3.009719785753E-01
H48  3.994120198767E-01 -1.335605430000E-01  1.741890212748E-01
C49  4.789291816692E-01 -3.958547788635E-01  8.336072185235E-02
C50 -3.864339471291E-01  2.690669300623E-01  1.490642740541E-01
C51  4.247976518816E-01 -2.829848929207E-01  9.396482969696E-03
C52 -4.417464148597E-01  3.813891760799E-01  7.394744971001E-02
H53 -3.265746072604E-01  1.029633825637E-01  1.421477102756E-01
H54  3.659150446130E-01 -1.163620979567E-01  1.656086196846E-02
C55  4.444027782129E-01 -3.795400203559E-01 -7.353806475719E-02
C56 -4.217561517780E-01  2.850495004897E-01 -8.929089382602E-03
C57  3.888434935659E-01 -2.674063635781E-01 -1.487335514881E-01
C58 -4.772217544656E-01  3.971756383793E-01 -8.311707554993E-02
H59 -3.626180778108E-01  1.185902333267E-01 -1.604732692054E-02
H60  3.303186230556E-01 -1.005496286177E-01 -1.415879020540E-01
C61  4.065336102221E-01 -3.654120249296E-01 -2.310510364812E-01
C62 -4.594272939400E-01  2.997722104966E-01 -1.673070475807E-01
C63  3.490908951053E-01 -2.534084223356E-01 -3.079429096144E-01
C64  4.843505121619E-01  4.111821542940E-01 -2.406686902148E-01
H65 -4.008122303177E-01  1.329875308434E-01 -1.745092202520E-01
H66  2.895242064852E-01 -8.725694888019E-02 -3.009493242009E-01
C67  3.684255948616E-01 -3.531578182111E-01 -3.879593870740E-01
C68 -4.986539573249E-01  3.131208702449E-01 -3.264597643431E-01
H69  3.242708358558E-01 -2.665104478867E-01 -4.455899544508E-01
C70  4.461880236693E-01  4.271876508460E-01 -3.971991459679E-01
H71 -4.404633350847E-01  1.461459637125E-01 -3.337971719478E-01
H72  4.607530390842E-01  3.506697021631E-01 -4.614659377373E-01


#===END
