###############################################################################
#
#                    CRYSTAL17 CIF FILE
#
###############################################################################

data_OPT_STEP_1

_symmetry_space_group_name_H-M 'P 1'
_cell_length_a      7.90000000
_cell_length_b      6.06000000
_cell_length_c     16.01000000
_cell_angle_alpha  101.900002
_cell_angle_beta  112.599998
_cell_angle_gamma   85.800003

loop_
_atom_site_label
_atom_site_fract_x
_atom_site_fract_y
_atom_site_fract_z
C1  1.189113162065E-01  4.933685751979E-02  4.054644095407E-01
H2  1.585881414411E-01  1.233251352121E-01  4.780483718588E-01
C3  1.468839712798E-01  1.656076446826E-01  3.476489161592E-01
C4  3.792496530999E-02 -1.707339262381E-01  3.714546119735E-01
H5  2.068794410229E-01  3.333087174416E-01  3.729135262334E-01
C6  9.530108887057E-02  7.150943086243E-02  2.513819222100E-01
H7  1.712978870652E-02 -2.611349999778E-01  4.185698663254E-01
C8 -1.428402477012E-02 -2.665554735020E-01  2.805104617024E-01
C9  1.220211596123E-01  1.861214541378E-01  1.909887565690E-01
C10  1.087045337004E-02 -1.502196709314E-01  2.167772397791E-01
H11 -7.716942158549E-02 -4.323621710417E-01  2.545755087925E-01
H12  1.871257449446E-01  3.508646642154E-01  2.170372585971E-01
C13  6.368849302159E-02  9.582435445635E-02  9.568681066856E-02
C14 -4.572607432571E-02 -2.416900193835E-01  1.235736830615E-01
C15  8.560603699492E-02  2.129523838575E-01  3.379161602865E-02
C16 -2.392663649027E-02 -1.243520512765E-01  6.080822379852E-02
H17 -1.102426854797E-01 -4.066862785596E-01  9.764356349230E-02
H18  1.516509676217E-01  3.771040482630E-01  5.977263824546E-02
C19  2.392663649027E-02  1.243520512765E-01 -6.080822379852E-02
C20 -8.560603699492E-02 -2.129523838575E-01 -3.379161602865E-02
C21  4.572607432571E-02  2.416900193835E-01 -1.235736830615E-01
C22 -6.368849302159E-02 -9.582435445635E-02 -9.568681066856E-02
H23 -1.516509676217E-01 -3.771040482630E-01 -5.977263824546E-02
H24  1.102426854797E-01  4.066862785596E-01 -9.764356349230E-02
C25 -1.087045337004E-02  1.502196709314E-01 -2.167772397791E-01
C26 -1.220211596123E-01 -1.861214541378E-01 -1.909887565690E-01
C27  1.428402477012E-02  2.665554735020E-01 -2.805104617024E-01
C28 -9.530108887057E-02 -7.150943086243E-02 -2.513819222100E-01
H29 -1.871257449446E-01 -3.508646642154E-01 -2.170372585971E-01
H30  7.716942158549E-02  4.323621710417E-01 -2.545755087925E-01
C31 -3.792496530999E-02  1.707339262381E-01 -3.714546119735E-01
C32 -1.468839712798E-01 -1.656076446826E-01 -3.476489161592E-01
H33 -1.712978870652E-02  2.611349999778E-01 -4.185698663254E-01
C34 -1.189113162065E-01 -4.933685751979E-02 -4.054644095407E-01
H35 -2.068794410229E-01 -3.333087174416E-01 -3.729135262334E-01
H36 -1.585881414411E-01 -1.233251352121E-01 -4.780483718588E-01
C37 -4.495464994092E-01 -4.287810459388E-01  3.966701674946E-01
H38 -4.639260213660E-01 -3.521881035921E-01  4.609784975073E-01
C39 -4.984218579238E-01 -3.113543051652E-01  3.270725861734E-01
C40 -3.777126827390E-01  3.482826062779E-01  3.862906540616E-01
H41  4.473036972082E-01 -1.422136226233E-01  3.351168146740E-01
C42 -4.808921956129E-01 -4.091043529426E-01  2.413551939268E-01
H43 -3.387819872654E-01  2.584602449598E-01  4.428718999510E-01
C44 -3.560389637766E-01  2.498601955705E-01  3.067187051691E-01
C45  4.662741221553E-01 -2.959023313705E-01  1.685835729271E-01
C46 -4.070931165488E-01  3.653017269825E-01  2.309863509627E-01
H47 -2.993504108157E-01  8.213545661815E-02  2.992142776347E-01
H48  4.098163802702E-01 -1.279154437084E-01  1.761761129083E-01
C49  4.822443198344E-01 -3.942498367024E-01  8.403195828427E-02
C50 -3.884625486642E-01  2.678018488951E-01  1.488283504066E-01
C51  4.266467093269E-01 -2.821597672800E-01  9.785107031945E-03
C52 -4.425520986475E-01  3.807031046295E-01  7.388292743445E-02
H53 -3.320164922197E-01  9.978074562721E-02  1.412868757498E-01
H54  3.698510284631E-01 -1.143500721276E-01  1.736573382802E-02
C55  4.425520986475E-01 -3.807031046295E-01 -7.388292743445E-02
C56 -4.266467093269E-01  2.821597672800E-01 -9.785107031945E-03
C57  3.884625486642E-01 -2.678018488951E-01 -1.488283504066E-01
C58 -4.822443198344E-01  3.942498367024E-01 -8.403195828427E-02
H59 -3.698510284631E-01  1.143500721276E-01 -1.736573382802E-02
H60  3.320164922197E-01 -9.978074562721E-02 -1.412868757498E-01
C61  4.070931165488E-01 -3.653017269825E-01 -2.309863509627E-01
C62 -4.662741221553E-01  2.959023313705E-01 -1.685835729271E-01
C63  3.560389637766E-01 -2.498601955705E-01 -3.067187051691E-01
C64  4.808921956129E-01  4.091043529426E-01 -2.413551939268E-01
H65 -4.098163802702E-01  1.279154437084E-01 -1.761761129083E-01
H66  2.993504108157E-01 -8.213545661815E-02 -2.992142776347E-01
C67  3.777126827390E-01 -3.482826062779E-01 -3.862906540616E-01
C68  4.984218579238E-01  3.113543051652E-01 -3.270725861734E-01
H69  3.387819872654E-01 -2.584602449598E-01 -4.428718999510E-01
C70  4.495464994092E-01  4.287810459388E-01 -3.966701674946E-01
H71 -4.473036972082E-01  1.422136226233E-01 -3.351168146740E-01
H72  4.639260213660E-01  3.521881035921E-01 -4.609784975073E-01


#===END

data_OPT_STEP_2

_symmetry_space_group_name_H-M 'P 1'
_cell_length_a      7.90000000
_cell_length_b      6.06000000
_cell_length_c     16.01000000
_cell_angle_alpha  101.900002
_cell_angle_beta  112.599998
_cell_angle_gamma   85.800003

loop_
_atom_site_label
_atom_site_fract_x
_atom_site_fract_y
_atom_site_fract_z
C1  1.189113162065E-01  4.933685751979E-02  4.054644095407E-01
H2  1.585881414411E-01  1.233251352121E-01  4.780483718588E-01
C3  1.468839712798E-01  1.656076446826E-01  3.476489161592E-01
C4  3.792496530999E-02 -1.707339262381E-01  3.714546119735E-01
H5  2.068794410229E-01  3.333087174416E-01  3.729135262334E-01
C6  9.530108887057E-02  7.150943086243E-02  2.513819222100E-01
H7  1.712978870652E-02 -2.611349999778E-01  4.185698663254E-01
C8 -1.428402477012E-02 -2.665554735020E-01  2.805104617024E-01
C9  1.220211596123E-01  1.861214541378E-01  1.909887565690E-01
C10  1.087045337004E-02 -1.502196709314E-01  2.167772397791E-01
H11 -7.716942158549E-02 -4.323621710417E-01  2.545755087925E-01
H12  1.871257449446E-01  3.508646642154E-01  2.170372585971E-01
C13  6.368849302159E-02  9.582435445635E-02  9.568681066856E-02
C14 -4.572607432571E-02 -2.416900193835E-01  1.235736830615E-01
C15  8.560603699492E-02  2.129523838575E-01  3.379161602865E-02
C16 -2.392663649027E-02 -1.243520512765E-01  6.080822379852E-02
H17 -1.102426854797E-01 -4.066862785596E-01  9.764356349230E-02
H18  1.516509676217E-01  3.771040482630E-01  5.977263824546E-02
C19  2.392663649027E-02  1.243520512765E-01 -6.080822379852E-02
C20 -8.560603699492E-02 -2.129523838575E-01 -3.379161602865E-02
C21  4.572607432571E-02  2.416900193835E-01 -1.235736830615E-01
C22 -6.368849302159E-02 -9.582435445635E-02 -9.568681066856E-02
H23 -1.516509676217E-01 -3.771040482630E-01 -5.977263824546E-02
H24  1.102426854797E-01  4.066862785596E-01 -9.764356349230E-02
C25 -1.087045337004E-02  1.502196709314E-01 -2.167772397791E-01
C26 -1.220211596123E-01 -1.861214541378E-01 -1.909887565690E-01
C27  1.428402477012E-02  2.665554735020E-01 -2.805104617024E-01
C28 -9.530108887057E-02 -7.150943086243E-02 -2.513819222100E-01
H29 -1.871257449446E-01 -3.508646642154E-01 -2.170372585971E-01
H30  7.716942158549E-02  4.323621710417E-01 -2.545755087925E-01
C31 -3.792496530999E-02  1.707339262381E-01 -3.714546119735E-01
C32 -1.468839712798E-01 -1.656076446826E-01 -3.476489161592E-01
H33 -1.712978870652E-02  2.611349999778E-01 -4.185698663254E-01
C34 -1.189113162065E-01 -4.933685751979E-02 -4.054644095407E-01
H35 -2.068794410229E-01 -3.333087174416E-01 -3.729135262334E-01
H36 -1.585881414411E-01 -1.233251352121E-01 -4.780483718588E-01
C37 -4.495464994092E-01 -4.287810459388E-01  3.966701674946E-01
H38 -4.639260213660E-01 -3.521881035921E-01  4.609784975073E-01
C39 -4.984218579238E-01 -3.113543051652E-01  3.270725861734E-01
C40 -3.777126827390E-01  3.482826062779E-01  3.862906540616E-01
H41  4.473036972082E-01 -1.422136226233E-01  3.351168146740E-01
C42 -4.808921956129E-01 -4.091043529426E-01  2.413551939268E-01
H43 -3.387819872654E-01  2.584602449598E-01  4.428718999510E-01
C44 -3.560389637766E-01  2.498601955705E-01  3.067187051691E-01
C45  4.662741221553E-01 -2.959023313705E-01  1.685835729271E-01
C46 -4.070931165488E-01  3.653017269825E-01  2.309863509627E-01
H47 -2.993504108157E-01  8.213545661815E-02  2.992142776347E-01
H48  4.098163802702E-01 -1.279154437084E-01  1.761761129083E-01
C49  4.822443198344E-01 -3.942498367024E-01  8.403195828427E-02
C50 -3.884625486642E-01  2.678018488951E-01  1.488283504066E-01
C51  4.266467093269E-01 -2.821597672800E-01  9.785107031945E-03
C52 -4.425520986475E-01  3.807031046295E-01  7.388292743445E-02
H53 -3.320164922197E-01  9.978074562721E-02  1.412868757498E-01
H54  3.698510284631E-01 -1.143500721276E-01  1.736573382802E-02
C55  4.425520986475E-01 -3.807031046295E-01 -7.388292743445E-02
C56 -4.266467093269E-01  2.821597672800E-01 -9.785107031945E-03
C57  3.884625486642E-01 -2.678018488951E-01 -1.488283504066E-01
C58 -4.822443198344E-01  3.942498367024E-01 -8.403195828427E-02
H59 -3.698510284631E-01  1.143500721276E-01 -1.736573382802E-02
H60  3.320164922197E-01 -9.978074562721E-02 -1.412868757498E-01
C61  4.070931165488E-01 -3.653017269825E-01 -2.309863509627E-01
C62 -4.662741221553E-01  2.959023313705E-01 -1.685835729271E-01
C63  3.560389637766E-01 -2.498601955705E-01 -3.067187051691E-01
C64  4.808921956129E-01  4.091043529426E-01 -2.413551939268E-01
H65 -4.098163802702E-01  1.279154437084E-01 -1.761761129083E-01
H66  2.993504108157E-01 -8.213545661815E-02 -2.992142776347E-01
C67  3.777126827390E-01 -3.482826062779E-01 -3.862906540616E-01
C68  4.984218579238E-01  3.113543051652E-01 -3.270725861734E-01
H69  3.387819872654E-01 -2.584602449598E-01 -4.428718999510E-01
C70  4.495464994092E-01  4.287810459388E-01 -3.966701674946E-01
H71 -4.473036972082E-01  1.422136226233E-01 -3.351168146740E-01
H72  4.639260213660E-01  3.521881035921E-01 -4.609784975073E-01


#===END
