###############################################################################
#
#                    CRYSTAL17 CIF FILE
#
###############################################################################

data_OPT_STEP_1

_symmetry_space_group_name_H-M 'P 1'
_cell_length_a      7.90000000
_cell_length_b      6.06000000
_cell_length_c     16.01000000
_cell_angle_alpha  101.900002
_cell_angle_beta  112.599998
_cell_angle_gamma   85.800003

loop_
_atom_site_label
_atom_site_fract_x
_atom_site_fract_y
_atom_site_fract_z
C1  1.272785891413E-01  4.602403679224E-02  4.061732331409E-01
H2  1.728693703143E-01  1.169216716968E-01  4.792435160843E-01
C3  1.529835289792E-01  1.630606609090E-01  3.480086405087E-01
C4  4.016789436307E-02 -1.704463037781E-01  3.718074934019E-01
H5  2.168306435994E-01  3.285659688988E-01  3.733746125054E-01
C6  9.456262235780E-02  7.230440301805E-02  2.512246932110E-01
H7  1.998869010017E-02 -2.609661439883E-01  4.190470973343E-01
C8 -1.871220179741E-02 -2.629311809159E-01  2.803838350441E-01
C9  1.205739182393E-01  1.867923147952E-01  1.906509784895E-01
C10  5.868322745345E-03 -1.468854893887E-01  2.164319780575E-01
H11 -8.532095361236E-02 -4.265517058040E-01  2.543429715212E-01
H12  1.877808579568E-01  3.502570856800E-01  2.166961538520E-01
C13  6.122449767419E-02  9.654400213310E-02  9.533549950019E-02
C14 -5.316602283644E-02 -2.374585252664E-01  1.230806829750E-01
C15  8.637703125186E-02  2.114152185633E-01  3.367659511014E-02
C16 -2.850256001889E-02 -1.223557392371E-01  6.040587581656E-02
H17 -1.197692979478E-01 -4.012238627580E-01  9.712876998905E-02
H18  1.533376800144E-01  3.749925293706E-01  5.965830906708E-02
C19  2.693570435885E-02  1.211654310155E-01 -6.070454827582E-02
C20 -8.803872501128E-02 -2.126011999833E-01 -3.400518752312E-02
C21  5.168052370862E-02  2.367109335748E-01 -1.231978372648E-01
C22 -6.251044913213E-02 -9.792552410672E-02 -9.568301156339E-02
H23 -1.550844013710E-01 -3.761080188260E-01 -6.000674580706E-02
H24  1.178232232094E-01  4.007602831044E-01 -9.711749911065E-02
C25 -6.553429074333E-03  1.462052138917E-01 -2.165263477939E-01
C26 -1.209388178799E-01 -1.882704317646E-01 -1.910048024271E-01
C27  1.790440571335E-02  2.632225575775E-01 -2.802334275191E-01
C28 -9.433032466546E-02 -7.357310552285E-02 -2.514253982608E-01
H29 -1.877404484244E-01 -3.519562206132E-01 -2.171905310576E-01
H30  8.362977375236E-02  4.273163145204E-01 -2.539534142078E-01
C31 -3.997821757763E-02  1.710740969465E-01 -3.716717362469E-01
C32 -1.511462707500E-01 -1.643235317460E-01 -3.481796457537E-01
H33 -2.030646306833E-02  2.623479784329E-01 -4.188302859435E-01
C34 -1.253396758977E-01 -4.640355071142E-02 -4.060992045927E-01
H35 -2.137967747260E-01 -3.305053898392E-01 -3.737260563284E-01
H36 -1.690406161367E-01 -1.176693239788E-01 -4.790482404531E-01
C37 -4.427792762965E-01 -4.256519255481E-01  3.978965366783E-01
H38 -4.538430864456E-01 -3.474192753130E-01  4.628644224970E-01
C39 -4.926590700196E-01 -3.083971928545E-01  3.282179777258E-01
C40 -3.758016085306E-01  3.487015735889E-01  3.864340515685E-01
H41  4.558866383767E-01 -1.377121775040E-01  3.369354936555E-01
C42 -4.805160316855E-01 -4.086178157483E-01  2.414447212620E-01
H43 -3.363661346000E-01  2.588600523497E-01  4.430210589812E-01
C44 -3.590695457457E-01  2.479994899263E-01  3.058994744622E-01
C45  4.650983443372E-01 -2.959693882016E-01  1.684672926911E-01
C46 -4.101238632545E-01  3.639271616722E-01  2.303181034421E-01
H47 -3.051431864339E-01  7.875222306936E-02  2.977289023361E-01
H48  4.093923427186E-01 -1.275982787507E-01  1.762860168132E-01
C49  4.798905140780E-01 -3.946941733229E-01  8.366102076324E-02
C50 -3.926387667356E-01  2.661363880731E-01  1.479447636955E-01
C51  4.233985815147E-01 -2.831064695608E-01  9.252051586363E-03
C52 -4.441023638502E-01  3.807314737258E-01  7.359597745115E-02
H53 -3.373067284577E-01  9.757563175892E-02  1.400930572252E-01
H54  3.639532232519E-01 -1.168087913791E-01  1.629125066465E-02
C55  4.420468292224E-01 -3.801977227100E-01 -7.388953701605E-02
C56 -4.231552221449E-01  2.849279238496E-01 -9.073520765935E-03
C57  3.826386739594E-01 -2.703369055673E-01 -1.498530618467E-01
C58 -4.762604220568E-01  3.983362439199E-01 -8.281677663904E-02
H59 -3.645798991719E-01  1.181435399043E-01 -1.631693822435E-02
H60  3.195865018583E-01 -1.059373794225E-01 -1.436425551044E-01
C61  4.030399804677E-01 -3.670974598364E-01 -2.316590973483E-01
C62 -4.530031243798E-01  3.037406986534E-01 -1.659252307295E-01
C63  3.393242398835E-01 -2.589032991389E-01 -3.098169339262E-01
C64  4.902554377647E-01  4.146907328817E-01 -2.394323337750E-01
H65 -3.908319074758E-01  1.389497950927E-01 -1.724122247136E-01
H66  2.730898816247E-01 -9.645099359636E-02 -3.041924004401E-01
C67  3.624616613918E-01 -3.569299690727E-01 -3.890951679647E-01
C68 -4.864231143030E-01  3.197147787845E-01 -3.239737621166E-01
H69  3.137597200878E-01 -2.731169159555E-01 -4.476576980500E-01
C70  4.522123848249E-01  4.300352995299E-01 -3.959745065917E-01
H71 -4.207198105947E-01  1.569722172526E-01 -3.298098682799E-01
H72  4.698428660832E-01  3.550392298632E-01 -4.596444763220E-01


#===END

data_OPT_STEP_2

_symmetry_space_group_name_H-M 'P 1'
_cell_length_a      7.90000000
_cell_length_b      6.06000000
_cell_length_c     16.01000000
_cell_angle_alpha  101.900002
_cell_angle_beta  112.599998
_cell_angle_gamma   85.800003

loop_
_atom_site_label
_atom_site_fract_x
_atom_site_fract_y
_atom_site_fract_z
C1  1.272785891413E-01  4.602403679224E-02  4.061732331409E-01
H2  1.728693703143E-01  1.169216716968E-01  4.792435160843E-01
C3  1.529835289792E-01  1.630606609090E-01  3.480086405087E-01
C4  4.016789436307E-02 -1.704463037781E-01  3.718074934019E-01
H5  2.168306435994E-01  3.285659688988E-01  3.733746125054E-01
C6  9.456262235780E-02  7.230440301805E-02  2.512246932110E-01
H7  1.998869010017E-02 -2.609661439883E-01  4.190470973343E-01
C8 -1.871220179741E-02 -2.629311809159E-01  2.803838350441E-01
C9  1.205739182393E-01  1.867923147952E-01  1.906509784895E-01
C10  5.868322745345E-03 -1.468854893887E-01  2.164319780575E-01
H11 -8.532095361236E-02 -4.265517058040E-01  2.543429715212E-01
H12  1.877808579568E-01  3.502570856800E-01  2.166961538520E-01
C13  6.122449767419E-02  9.654400213310E-02  9.533549950019E-02
C14 -5.316602283644E-02 -2.374585252664E-01  1.230806829750E-01
C15  8.637703125186E-02  2.114152185633E-01  3.367659511014E-02
C16 -2.850256001889E-02 -1.223557392371E-01  6.040587581656E-02
H17 -1.197692979478E-01 -4.012238627580E-01  9.712876998905E-02
H18  1.533376800144E-01  3.749925293706E-01  5.965830906708E-02
C19  2.693570435885E-02  1.211654310155E-01 -6.070454827582E-02
C20 -8.803872501128E-02 -2.126011999833E-01 -3.400518752312E-02
C21  5.168052370862E-02  2.367109335748E-01 -1.231978372648E-01
C22 -6.251044913213E-02 -9.792552410672E-02 -9.568301156339E-02
H23 -1.550844013710E-01 -3.761080188260E-01 -6.000674580706E-02
H24  1.178232232094E-01  4.007602831044E-01 -9.711749911065E-02
C25 -6.553429074333E-03  1.462052138917E-01 -2.165263477939E-01
C26 -1.209388178799E-01 -1.882704317646E-01 -1.910048024271E-01
C27  1.790440571335E-02  2.632225575775E-01 -2.802334275191E-01
C28 -9.433032466546E-02 -7.357310552285E-02 -2.514253982608E-01
H29 -1.877404484244E-01 -3.519562206132E-01 -2.171905310576E-01
H30  8.362977375236E-02  4.273163145204E-01 -2.539534142078E-01
C31 -3.997821757763E-02  1.710740969465E-01 -3.716717362469E-01
C32 -1.511462707500E-01 -1.643235317460E-01 -3.481796457537E-01
H33 -2.030646306833E-02  2.623479784329E-01 -4.188302859435E-01
C34 -1.253396758977E-01 -4.640355071142E-02 -4.060992045927E-01
H35 -2.137967747260E-01 -3.305053898392E-01 -3.737260563284E-01
H36 -1.690406161367E-01 -1.176693239788E-01 -4.790482404531E-01
C37 -4.427792762965E-01 -4.256519255481E-01  3.978965366783E-01
H38 -4.538430864456E-01 -3.474192753130E-01  4.628644224970E-01
C39 -4.926590700196E-01 -3.083971928545E-01  3.282179777258E-01
C40 -3.758016085306E-01  3.487015735889E-01  3.864340515685E-01
H41  4.558866383767E-01 -1.377121775040E-01  3.369354936555E-01
C42 -4.805160316855E-01 -4.086178157483E-01  2.414447212620E-01
H43 -3.363661346000E-01  2.588600523497E-01  4.430210589812E-01
C44 -3.590695457457E-01  2.479994899263E-01  3.058994744622E-01
C45  4.650983443372E-01 -2.959693882016E-01  1.684672926911E-01
C46 -4.101238632545E-01  3.639271616722E-01  2.303181034421E-01
H47 -3.051431864339E-01  7.875222306936E-02  2.977289023361E-01
H48  4.093923427186E-01 -1.275982787507E-01  1.762860168132E-01
C49  4.798905140780E-01 -3.946941733229E-01  8.366102076324E-02
C50 -3.926387667356E-01  2.661363880731E-01  1.479447636955E-01
C51  4.233985815147E-01 -2.831064695608E-01  9.252051586363E-03
C52 -4.441023638502E-01  3.807314737258E-01  7.359597745115E-02
H53 -3.373067284577E-01  9.757563175892E-02  1.400930572252E-01
H54  3.639532232519E-01 -1.168087913791E-01  1.629125066465E-02
C55  4.420468292224E-01 -3.801977227100E-01 -7.388953701605E-02
C56 -4.231552221449E-01  2.849279238496E-01 -9.073520765935E-03
C57  3.826386739594E-01 -2.703369055673E-01 -1.498530618467E-01
C58 -4.762604220568E-01  3.983362439199E-01 -8.281677663904E-02
H59 -3.645798991719E-01  1.181435399043E-01 -1.631693822435E-02
H60  3.195865018583E-01 -1.059373794225E-01 -1.436425551044E-01
C61  4.030399804677E-01 -3.670974598364E-01 -2.316590973483E-01
C62 -4.530031243798E-01  3.037406986534E-01 -1.659252307295E-01
C63  3.393242398835E-01 -2.589032991389E-01 -3.098169339262E-01
C64  4.902554377647E-01  4.146907328817E-01 -2.394323337750E-01
H65 -3.908319074758E-01  1.389497950927E-01 -1.724122247136E-01
H66  2.730898816247E-01 -9.645099359636E-02 -3.041924004401E-01
C67  3.624616613918E-01 -3.569299690727E-01 -3.890951679647E-01
C68 -4.864231143030E-01  3.197147787845E-01 -3.239737621166E-01
H69  3.137597200878E-01 -2.731169159555E-01 -4.476576980500E-01
C70  4.522123848249E-01  4.300352995299E-01 -3.959745065917E-01
H71 -4.207198105947E-01  1.569722172526E-01 -3.298098682799E-01
H72  4.698428660832E-01  3.550392298632E-01 -4.596444763220E-01


#===END
