###############################################################################
#
#                    CRYSTAL17 CIF FILE
#
###############################################################################

data_OPT_STEP_1

_symmetry_space_group_name_H-M 'P 1'
_cell_length_a      7.90000000
_cell_length_b      6.06000000
_cell_length_c     16.01000000
_cell_angle_alpha  101.900002
_cell_angle_beta  112.599998
_cell_angle_gamma   85.800003

loop_
_atom_site_label
_atom_site_fract_x
_atom_site_fract_y
_atom_site_fract_z
C1  1.242747177979E-01  4.769598275282E-02  4.059373175364E-01
H2  1.665815040854E-01  1.200430575546E-01  4.787491107979E-01
C3  1.482607556441E-01  1.661568247800E-01  3.477354566124E-01
C4  4.392492338715E-02 -1.727372430616E-01  3.720571261015E-01
H5  2.086630808681E-01  3.336523930165E-01  3.729238861819E-01
C6  9.353551335870E-02  7.359801083612E-02  2.512190763054E-01
H7  2.762586125536E-02 -2.656665411590E-01  4.195995436057E-01
C8 -1.459998480281E-02 -2.650908006902E-01  2.806305436554E-01
C9  1.228516552122E-01  1.863043402059E-01  1.909745676888E-01
C10  5.552773846957E-03 -1.460470632593E-01  2.164085456475E-01
H11 -7.788544768259E-02 -4.306667725999E-01  2.547421836799E-01
H12  1.915859178925E-01  3.487981295111E-01  2.171952506590E-01
C13  6.412140019809E-02  9.584149141692E-02  9.567851298384E-02
C14 -5.626105158674E-02 -2.347554071541E-01  1.228121518241E-01
C15  9.365458901185E-02  2.081194418201E-01  3.438248144497E-02
C16 -3.137843436105E-02 -1.195516464626E-01  6.024118132454E-02
H17 -1.236577114803E-01 -3.980516692197E-01  9.670142992269E-02
H18  1.640089745680E-01  3.695623334949E-01  6.066599158580E-02
C19  3.137843436105E-02  1.195516464626E-01 -6.024118132454E-02
C20 -9.365458901185E-02 -2.081194418201E-01 -3.438248144497E-02
C21  5.626105158674E-02  2.347554071541E-01 -1.228121518241E-01
C22 -6.412140019809E-02 -9.584149141692E-02 -9.567851298384E-02
H23 -1.640089745680E-01 -3.695623334949E-01 -6.066599158580E-02
H24  1.236577114803E-01  3.980516692197E-01 -9.670142992269E-02
C25 -5.552773846957E-03  1.460470632593E-01 -2.164085456475E-01
C26 -1.228516552122E-01 -1.863043402059E-01 -1.909745676888E-01
C27  1.459998480281E-02  2.650908006902E-01 -2.806305436554E-01
C28 -9.353551335870E-02 -7.359801083612E-02 -2.512190763054E-01
H29 -1.915859178925E-01 -3.487981295111E-01 -2.171952506590E-01
H30  7.788544768259E-02  4.306667725999E-01 -2.547421836799E-01
C31 -4.392492338715E-02  1.727372430616E-01 -3.720571261015E-01
C32 -1.482607556441E-01 -1.661568247800E-01 -3.477354566124E-01
H33 -2.762586125536E-02  2.656665411590E-01 -4.195995436057E-01
C34 -1.242747177979E-01 -4.769598275282E-02 -4.059373175364E-01
H35 -2.086630808681E-01 -3.336523930165E-01 -3.729238861819E-01
H36 -1.665815040854E-01 -1.200430575546E-01 -4.787491107979E-01
C37 -4.441992538156E-01 -4.254956721826E-01  3.975521204557E-01
H38 -4.556097074909E-01 -3.472728242663E-01  4.624261607962E-01
C39 -4.988103146061E-01 -3.113161139239E-01  3.268521052457E-01
C40 -3.720400951323E-01  3.516947584648E-01  3.872533787070E-01
H41  4.455259540805E-01 -1.429270014028E-01  3.345857437865E-01
C42 -4.850652909614E-01 -4.113358549211E-01  2.404503289588E-01
H43 -3.310706911933E-01  2.632557170902E-01  4.442817147012E-01
C44 -3.529299068571E-01  2.516653706939E-01  3.072108498746E-01
C45  4.552221941488E-01 -3.019262539973E-01  1.664057103735E-01
C46 -4.064723263787E-01  3.656908338087E-01  2.310093024180E-01
H47 -2.958734980332E-01  8.409684162215E-02  2.997957460255E-01
H48  3.942037400914E-01 -1.365226721110E-01  1.731378757331E-01
C49  4.744164915231E-01 -3.985764113321E-01  8.250142176676E-02
C50 -3.845371420931E-01  2.699353117727E-01  1.494987687635E-01
C51  4.157396351297E-01 -2.881252966142E-01  7.716199892270E-03
C52 -4.398136418296E-01  3.822105384295E-01  7.435441344963E-02
H53 -3.243475483482E-01  1.039775606161E-01  1.426775635578E-01
H54  3.527522723048E-01 -1.238441679556E-01  1.411542873308E-02
C55  4.398136418296E-01 -3.822105384295E-01 -7.435441344963E-02
C56 -4.157396351297E-01  2.881252966142E-01 -7.716199892270E-03
C57  3.845371420931E-01 -2.699353117727E-01 -1.494987687635E-01
C58 -4.744164915231E-01  3.985764113321E-01 -8.250142176676E-02
H59 -3.527522723048E-01  1.238441679556E-01 -1.411542873308E-02
H60  3.243475483482E-01 -1.039775606161E-01 -1.426775635578E-01
C61  4.064723263787E-01 -3.656908338087E-01 -2.310093024180E-01
C62 -4.552221941488E-01  3.019262539973E-01 -1.664057103735E-01
C63  3.529299068571E-01 -2.516653706939E-01 -3.072108498746E-01
C64  4.850652909614E-01  4.113358549211E-01 -2.404503289588E-01
H65 -3.942037400914E-01  1.365226721110E-01 -1.731378757331E-01
H66  2.958734980332E-01 -8.409684162215E-02 -2.997957460255E-01
C67  3.720400951323E-01 -3.516947584648E-01 -3.872533787070E-01
C68  4.988103146061E-01  3.113161139239E-01 -3.268521052457E-01
H69  3.310706911933E-01 -2.632557170902E-01 -4.442817147012E-01
C70  4.441992538156E-01  4.254956721826E-01 -3.975521204557E-01
H71 -4.455259540805E-01  1.429270014028E-01 -3.345857437865E-01
H72  4.556097074909E-01  3.472728242663E-01 -4.624261607962E-01


#===END

data_OPT_STEP_2

_symmetry_space_group_name_H-M 'P 1'
_cell_length_a      7.90000000
_cell_length_b      6.06000000
_cell_length_c     16.01000000
_cell_angle_alpha  101.900002
_cell_angle_beta  112.599998
_cell_angle_gamma   85.800003

loop_
_atom_site_label
_atom_site_fract_x
_atom_site_fract_y
_atom_site_fract_z
C1  1.242747177979E-01  4.769598275282E-02  4.059373175364E-01
H2  1.665815040854E-01  1.200430575546E-01  4.787491107979E-01
C3  1.482607556441E-01  1.661568247800E-01  3.477354566124E-01
C4  4.392492338715E-02 -1.727372430616E-01  3.720571261015E-01
H5  2.086630808681E-01  3.336523930165E-01  3.729238861819E-01
C6  9.353551335870E-02  7.359801083612E-02  2.512190763054E-01
H7  2.762586125536E-02 -2.656665411590E-01  4.195995436057E-01
C8 -1.459998480281E-02 -2.650908006902E-01  2.806305436554E-01
C9  1.228516552122E-01  1.863043402059E-01  1.909745676888E-01
C10  5.552773846957E-03 -1.460470632593E-01  2.164085456475E-01
H11 -7.788544768259E-02 -4.306667725999E-01  2.547421836799E-01
H12  1.915859178925E-01  3.487981295111E-01  2.171952506590E-01
C13  6.412140019809E-02  9.584149141692E-02  9.567851298384E-02
C14 -5.626105158674E-02 -2.347554071541E-01  1.228121518241E-01
C15  9.365458901185E-02  2.081194418201E-01  3.438248144497E-02
C16 -3.137843436105E-02 -1.195516464626E-01  6.024118132454E-02
H17 -1.236577114803E-01 -3.980516692197E-01  9.670142992269E-02
H18  1.640089745680E-01  3.695623334949E-01  6.066599158580E-02
C19  3.137843436105E-02  1.195516464626E-01 -6.024118132454E-02
C20 -9.365458901185E-02 -2.081194418201E-01 -3.438248144497E-02
C21  5.626105158674E-02  2.347554071541E-01 -1.228121518241E-01
C22 -6.412140019809E-02 -9.584149141692E-02 -9.567851298384E-02
H23 -1.640089745680E-01 -3.695623334949E-01 -6.066599158580E-02
H24  1.236577114803E-01  3.980516692197E-01 -9.670142992269E-02
C25 -5.552773846957E-03  1.460470632593E-01 -2.164085456475E-01
C26 -1.228516552122E-01 -1.863043402059E-01 -1.909745676888E-01
C27  1.459998480281E-02  2.650908006902E-01 -2.806305436554E-01
C28 -9.353551335870E-02 -7.359801083612E-02 -2.512190763054E-01
H29 -1.915859178925E-01 -3.487981295111E-01 -2.171952506590E-01
H30  7.788544768259E-02  4.306667725999E-01 -2.547421836799E-01
C31 -4.392492338715E-02  1.727372430616E-01 -3.720571261015E-01
C32 -1.482607556441E-01 -1.661568247800E-01 -3.477354566124E-01
H33 -2.762586125536E-02  2.656665411590E-01 -4.195995436057E-01
C34 -1.242747177979E-01 -4.769598275282E-02 -4.059373175364E-01
H35 -2.086630808681E-01 -3.336523930165E-01 -3.729238861819E-01
H36 -1.665815040854E-01 -1.200430575546E-01 -4.787491107979E-01
C37 -4.441992538156E-01 -4.254956721826E-01  3.975521204557E-01
H38 -4.556097074909E-01 -3.472728242663E-01  4.624261607962E-01
C39 -4.988103146061E-01 -3.113161139239E-01  3.268521052457E-01
C40 -3.720400951323E-01  3.516947584648E-01  3.872533787070E-01
H41  4.455259540805E-01 -1.429270014028E-01  3.345857437865E-01
C42 -4.850652909614E-01 -4.113358549211E-01  2.404503289588E-01
H43 -3.310706911933E-01  2.632557170902E-01  4.442817147012E-01
C44 -3.529299068571E-01  2.516653706939E-01  3.072108498746E-01
C45  4.552221941488E-01 -3.019262539973E-01  1.664057103735E-01
C46 -4.064723263787E-01  3.656908338087E-01  2.310093024180E-01
H47 -2.958734980332E-01  8.409684162215E-02  2.997957460255E-01
H48  3.942037400914E-01 -1.365226721110E-01  1.731378757331E-01
C49  4.744164915231E-01 -3.985764113321E-01  8.250142176676E-02
C50 -3.845371420931E-01  2.699353117727E-01  1.494987687635E-01
C51  4.157396351297E-01 -2.881252966142E-01  7.716199892270E-03
C52 -4.398136418296E-01  3.822105384295E-01  7.435441344963E-02
H53 -3.243475483482E-01  1.039775606161E-01  1.426775635578E-01
H54  3.527522723048E-01 -1.238441679556E-01  1.411542873308E-02
C55  4.398136418296E-01 -3.822105384295E-01 -7.435441344963E-02
C56 -4.157396351297E-01  2.881252966142E-01 -7.716199892270E-03
C57  3.845371420931E-01 -2.699353117727E-01 -1.494987687635E-01
C58 -4.744164915231E-01  3.985764113321E-01 -8.250142176676E-02
H59 -3.527522723048E-01  1.238441679556E-01 -1.411542873308E-02
H60  3.243475483482E-01 -1.039775606161E-01 -1.426775635578E-01
C61  4.064723263787E-01 -3.656908338087E-01 -2.310093024180E-01
C62 -4.552221941488E-01  3.019262539973E-01 -1.664057103735E-01
C63  3.529299068571E-01 -2.516653706939E-01 -3.072108498746E-01
C64  4.850652909614E-01  4.113358549211E-01 -2.404503289588E-01
H65 -3.942037400914E-01  1.365226721110E-01 -1.731378757331E-01
H66  2.958734980332E-01 -8.409684162215E-02 -2.997957460255E-01
C67  3.720400951323E-01 -3.516947584648E-01 -3.872533787070E-01
C68  4.988103146061E-01  3.113161139239E-01 -3.268521052457E-01
H69  3.310706911933E-01 -2.632557170902E-01 -4.442817147012E-01
C70  4.441992538156E-01  4.254956721826E-01 -3.975521204557E-01
H71 -4.455259540805E-01  1.429270014028E-01 -3.345857437865E-01
H72  4.556097074909E-01  3.472728242663E-01 -4.624261607962E-01


#===END
