###############################################################################
#
#                    CRYSTAL17 CIF FILE
#
###############################################################################

data_OPT_STEP_1

_symmetry_space_group_name_H-M 'P 1'
_cell_length_a      7.90000000
_cell_length_b      6.06000000
_cell_length_c     16.01000000
_cell_angle_alpha  101.900002
_cell_angle_beta  112.599998
_cell_angle_gamma   85.800003

loop_
_atom_site_label
_atom_site_fract_x
_atom_site_fract_y
_atom_site_fract_z
C1  1.251391842117E-01  4.725430590505E-02  4.060429881747E-01
H2  1.689117071389E-01  1.188234799592E-01  4.789723060508E-01
C3  1.518805575880E-01  1.640483581837E-01  3.480484463690E-01
C4  3.923734100292E-02 -1.699157698340E-01  3.717161035410E-01
H5  2.150891324983E-01  3.299182416231E-01  3.734654360416E-01
C6  9.515668395550E-02  7.262161925928E-02  2.513636848647E-01
H7  1.861248801797E-02 -2.602708544576E-01  4.188932971755E-01
C8 -1.793254427224E-02 -2.630669420267E-01  2.803904112135E-01
C9  1.217159684771E-01  1.869504847205E-01  1.908580809066E-01
C10  7.156255678552E-03 -1.469976786450E-01  2.165678197672E-01
H11 -8.380137757334E-02 -4.271035361899E-01  2.542962913515E-01
H12  1.884731872274E-01  3.506660049421E-01  2.169059226629E-01
C13  6.309315394256E-02  9.637679371563E-02  9.556843741008E-02
C14 -5.105354185926E-02 -2.379034711914E-01  1.232628641078E-01
C15  8.852177424194E-02  2.110975428970E-01  3.391372898952E-02
C16 -2.638949500183E-02 -1.226770925493E-01  6.063480741261E-02
H17 -1.173486736544E-01 -4.018577195820E-01  9.730744325162E-02
H18  1.554450487745E-01  3.746687493408E-01  5.990799393555E-02
C19  2.904876937591E-02  1.208440777033E-01 -6.047561667977E-02
C20 -8.589398202120E-02 -2.129188756496E-01 -3.376805364374E-02
C21  5.379300468580E-02  2.362659876498E-01 -1.230156561320E-01
C22 -6.064179286376E-02 -9.809273252419E-02 -9.545007365350E-02
H23 -1.529770326109E-01 -3.764317988558E-01 -5.975706093859E-02
H24  1.202438475028E-01  4.001264262804E-01 -9.693882584808E-02
C25 -5.265496141126E-03  1.460930246354E-01 -2.163905060842E-01
C26 -1.197967676421E-01 -1.881122618393E-01 -1.907977000100E-01
C27  1.868406323852E-02  2.630867964667E-01 -2.802268513497E-01
C28 -9.373626306776E-02 -7.325588928162E-02 -2.512864066071E-01
H29 -1.870481191538E-01 -3.515473013511E-01 -2.169807622467E-01
H30  8.514934979138E-02  4.267644841345E-01 -2.540000943775E-01
C31 -4.090877093778E-02  1.716046308906E-01 -3.717631261078E-01
C32 -1.522492421412E-01 -1.633358344713E-01 -3.481398398934E-01
H33 -2.168266515053E-02  2.630432679636E-01 -4.189840861023E-01
C34 -1.274790808273E-01 -4.517328159861E-02 -4.062294495589E-01
H35 -2.155382858271E-01 -3.291531171149E-01 -3.736352327922E-01
H36 -1.729982793121E-01 -1.157675157164E-01 -4.793194504866E-01
C37 -4.433210387983E-01 -4.383902041035E-01  3.975729936150E-01
H38 -4.558829657506E-01 -3.653579412245E-01  4.626754298878E-01
C39  4.986561788870E-01 -3.197475487647E-01  3.280478620309E-01
C40 -3.652064515070E-01  3.426803089701E-01  3.863528951563E-01
H41  4.402999090528E-01 -1.534512092652E-01  3.375303858562E-01
C42 -4.862044557088E-01 -4.114022312916E-01  2.411693882358E-01
H43 -3.197490948959E-01  2.525310437296E-01  4.429462692799E-01
C44 -3.477161576911E-01  2.486019546347E-01  3.054257192781E-01
C45  4.565599912052E-01 -2.956934324379E-01  1.687081760790E-01
C46 -4.073083745311E-01  3.661833452257E-01  2.301636974556E-01
H47 -2.881271172878E-01  8.302120087160E-02  2.962982021806E-01
H48  3.976233726982E-01 -1.295033677730E-01  1.774571794721E-01
C49  4.742377422968E-01 -3.882095086075E-01  8.380113248060E-02
C50 -3.899600034953E-01  2.731388395382E-01  1.476006946949E-01
C51  4.193484136429E-01 -2.753017895236E-01  9.433647001503E-03
C52 -4.468105887301E-01  3.889401998111E-01  7.371070136220E-02
H53 -3.308506238787E-01  1.069376754809E-01  1.389798493388E-01
H54  3.601664232885E-01 -1.088267717531E-01  1.656510788015E-02
C55  4.393386043425E-01 -3.719889966247E-01 -7.377481310500E-02
C56 -4.272053900167E-01  2.927326038868E-01 -8.891925350795E-03
C57  3.853174371997E-01 -2.633344541022E-01 -1.501971308473E-01
C58 -4.819131938380E-01  4.048209086353E-01 -8.267666492168E-02
H59 -3.683666991353E-01  1.261255595303E-01 -1.604308100885E-02
H60  3.260426064373E-01 -9.657533570053E-02 -1.447557629908E-01
C61  4.058554691911E-01 -3.648412762829E-01 -2.318135033348E-01
C62 -4.615414775118E-01  3.040166544171E-01 -1.656843473416E-01
C63  3.506776279381E-01 -2.583008344305E-01 -3.102906891103E-01
C64  4.845670137414E-01  4.119063173384E-01 -2.397076668012E-01
H65 -4.026008774962E-01  1.370447060704E-01 -1.712410620547E-01
H66  2.901059507708E-01 -9.218201579412E-02 -3.056231005956E-01
C67  3.730568184154E-01 -3.629512336915E-01 -3.891763243769E-01
C68 -4.951078653964E-01  3.083644228743E-01 -3.241438778115E-01
H69  3.303767597919E-01 -2.794459245756E-01 -4.477324877513E-01
C70  4.516706223231E-01  4.172970209745E-01 -3.962980496550E-01
H71 -4.363065399186E-01  1.412331854914E-01 -3.292149760792E-01
H72  4.678029867782E-01  3.371005639517E-01 -4.598334689312E-01


#===END

data_OPT_STEP_2

_symmetry_space_group_name_H-M 'P 1'
_cell_length_a      7.90000000
_cell_length_b      6.06000000
_cell_length_c     16.01000000
_cell_angle_alpha  101.900002
_cell_angle_beta  112.599998
_cell_angle_gamma   85.800003

loop_
_atom_site_label
_atom_site_fract_x
_atom_site_fract_y
_atom_site_fract_z
C1  1.251391842117E-01  4.725430590505E-02  4.060429881747E-01
H2  1.689117071389E-01  1.188234799592E-01  4.789723060508E-01
C3  1.518805575880E-01  1.640483581837E-01  3.480484463690E-01
C4  3.923734100292E-02 -1.699157698340E-01  3.717161035410E-01
H5  2.150891324983E-01  3.299182416231E-01  3.734654360416E-01
C6  9.515668395550E-02  7.262161925928E-02  2.513636848647E-01
H7  1.861248801797E-02 -2.602708544576E-01  4.188932971755E-01
C8 -1.793254427224E-02 -2.630669420267E-01  2.803904112135E-01
C9  1.217159684771E-01  1.869504847205E-01  1.908580809066E-01
C10  7.156255678552E-03 -1.469976786450E-01  2.165678197672E-01
H11 -8.380137757334E-02 -4.271035361899E-01  2.542962913515E-01
H12  1.884731872274E-01  3.506660049421E-01  2.169059226629E-01
C13  6.309315394256E-02  9.637679371563E-02  9.556843741008E-02
C14 -5.105354185926E-02 -2.379034711914E-01  1.232628641078E-01
C15  8.852177424194E-02  2.110975428970E-01  3.391372898952E-02
C16 -2.638949500183E-02 -1.226770925493E-01  6.063480741261E-02
H17 -1.173486736544E-01 -4.018577195820E-01  9.730744325162E-02
H18  1.554450487745E-01  3.746687493408E-01  5.990799393555E-02
C19  2.904876937591E-02  1.208440777033E-01 -6.047561667977E-02
C20 -8.589398202120E-02 -2.129188756496E-01 -3.376805364374E-02
C21  5.379300468580E-02  2.362659876498E-01 -1.230156561320E-01
C22 -6.064179286376E-02 -9.809273252419E-02 -9.545007365350E-02
H23 -1.529770326109E-01 -3.764317988558E-01 -5.975706093859E-02
H24  1.202438475028E-01  4.001264262804E-01 -9.693882584808E-02
C25 -5.265496141126E-03  1.460930246354E-01 -2.163905060842E-01
C26 -1.197967676421E-01 -1.881122618393E-01 -1.907977000100E-01
C27  1.868406323852E-02  2.630867964667E-01 -2.802268513497E-01
C28 -9.373626306776E-02 -7.325588928162E-02 -2.512864066071E-01
H29 -1.870481191538E-01 -3.515473013511E-01 -2.169807622467E-01
H30  8.514934979138E-02  4.267644841345E-01 -2.540000943775E-01
C31 -4.090877093778E-02  1.716046308906E-01 -3.717631261078E-01
C32 -1.522492421412E-01 -1.633358344713E-01 -3.481398398934E-01
H33 -2.168266515053E-02  2.630432679636E-01 -4.189840861023E-01
C34 -1.274790808273E-01 -4.517328159861E-02 -4.062294495589E-01
H35 -2.155382858271E-01 -3.291531171149E-01 -3.736352327922E-01
H36 -1.729982793121E-01 -1.157675157164E-01 -4.793194504866E-01
C37 -4.433210387983E-01 -4.383902041035E-01  3.975729936150E-01
H38 -4.558829657506E-01 -3.653579412245E-01  4.626754298878E-01
C39  4.986561788870E-01 -3.197475487647E-01  3.280478620309E-01
C40 -3.652064515070E-01  3.426803089701E-01  3.863528951563E-01
H41  4.402999090528E-01 -1.534512092652E-01  3.375303858562E-01
C42 -4.862044557088E-01 -4.114022312916E-01  2.411693882358E-01
H43 -3.197490948959E-01  2.525310437296E-01  4.429462692799E-01
C44 -3.477161576911E-01  2.486019546347E-01  3.054257192781E-01
C45  4.565599912052E-01 -2.956934324379E-01  1.687081760790E-01
C46 -4.073083745311E-01  3.661833452257E-01  2.301636974556E-01
H47 -2.881271172878E-01  8.302120087160E-02  2.962982021806E-01
H48  3.976233726982E-01 -1.295033677730E-01  1.774571794721E-01
C49  4.742377422968E-01 -3.882095086075E-01  8.380113248060E-02
C50 -3.899600034953E-01  2.731388395382E-01  1.476006946949E-01
C51  4.193484136429E-01 -2.753017895236E-01  9.433647001503E-03
C52 -4.468105887301E-01  3.889401998111E-01  7.371070136220E-02
H53 -3.308506238787E-01  1.069376754809E-01  1.389798493388E-01
H54  3.601664232885E-01 -1.088267717531E-01  1.656510788015E-02
C55  4.393386043425E-01 -3.719889966247E-01 -7.377481310500E-02
C56 -4.272053900167E-01  2.927326038868E-01 -8.891925350795E-03
C57  3.853174371997E-01 -2.633344541022E-01 -1.501971308473E-01
C58 -4.819131938380E-01  4.048209086353E-01 -8.267666492168E-02
H59 -3.683666991353E-01  1.261255595303E-01 -1.604308100885E-02
H60  3.260426064373E-01 -9.657533570053E-02 -1.447557629908E-01
C61  4.058554691911E-01 -3.648412762829E-01 -2.318135033348E-01
C62 -4.615414775118E-01  3.040166544171E-01 -1.656843473416E-01
C63  3.506776279381E-01 -2.583008344305E-01 -3.102906891103E-01
C64  4.845670137414E-01  4.119063173384E-01 -2.397076668012E-01
H65 -4.026008774962E-01  1.370447060704E-01 -1.712410620547E-01
H66  2.901059507708E-01 -9.218201579412E-02 -3.056231005956E-01
C67  3.730568184154E-01 -3.629512336915E-01 -3.891763243769E-01
C68 -4.951078653964E-01  3.083644228743E-01 -3.241438778115E-01
H69  3.303767597919E-01 -2.794459245756E-01 -4.477324877513E-01
C70  4.516706223231E-01  4.172970209745E-01 -3.962980496550E-01
H71 -4.363065399186E-01  1.412331854914E-01 -3.292149760792E-01
H72  4.678029867782E-01  3.371005639517E-01 -4.598334689312E-01


#===END
