###############################################################################
#
#                    CRYSTAL17 CIF FILE
#
###############################################################################

data_OPT_STEP_1

_symmetry_space_group_name_H-M 'P 1'
_cell_length_a      7.90000000
_cell_length_b      6.06000000
_cell_length_c     16.01000000
_cell_angle_alpha  101.900002
_cell_angle_beta  112.599998
_cell_angle_gamma   85.800003

loop_
_atom_site_label
_atom_site_fract_x
_atom_site_fract_y
_atom_site_fract_z
C1  1.245590102832E-01  4.633051529844E-02  4.060146262488E-01
H2  1.678673538415E-01  1.180996061258E-01  4.789191458386E-01
C3  1.450202660481E-01  1.670540590402E-01  3.475534089826E-01
C4  4.581039714350E-02 -1.750301228614E-01  3.721753001071E-01
H5  2.033709334277E-01  3.357066636143E-01  3.726911438958E-01
C6  8.984387989053E-02  7.507082593449E-02  2.509657906795E-01
H7  2.950974719503E-02 -2.683345308159E-01  4.196031220827E-01
C8 -1.110069750540E-02 -2.681101305412E-01  2.808581097585E-01
C9  1.129858608414E-01  1.917225312595E-01  1.902157856798E-01
C10  8.687738424087E-03 -1.486400874549E-01  2.166580559043E-01
H11 -7.299465751155E-02 -4.344636482063E-01  2.550659890322E-01
H12  1.762872017823E-01  3.575967123298E-01  2.160554710698E-01
C13  5.765400610300E-02  9.952688737943E-02  9.517524068880E-02
C14 -4.734772829174E-02 -2.405731085003E-01  1.235069330034E-01
C15  8.110729205942E-02  2.156957482335E-01  3.339838460972E-02
C16 -2.546763373840E-02 -1.233879333272E-01  6.071311419466E-02
H17 -1.094035168281E-01 -4.070249737561E-01  9.782597463585E-02
H18  1.443859552823E-01  3.815194938413E-01  5.914902305515E-02
C19  2.546763373840E-02  1.233879333272E-01 -6.071311419466E-02
C20 -8.110729205942E-02 -2.156957482335E-01 -3.339838460972E-02
C21  4.734772829174E-02  2.405731085003E-01 -1.235069330034E-01
C22 -5.765400610300E-02 -9.952688737943E-02 -9.517524068880E-02
H23 -1.443859552823E-01 -3.815194938413E-01 -5.914902305515E-02
H24  1.094035168281E-01  4.070249737561E-01 -9.782597463585E-02
C25 -8.687738424087E-03  1.486400874549E-01 -2.166580559043E-01
C26 -1.129858608414E-01 -1.917225312595E-01 -1.902157856798E-01
C27  1.110069750540E-02  2.681101305412E-01 -2.808581097585E-01
C28 -8.984387989053E-02 -7.507082593449E-02 -2.509657906795E-01
H29 -1.762872017823E-01 -3.575967123298E-01 -2.160554710698E-01
H30  7.299465751155E-02  4.344636482063E-01 -2.550659890322E-01
C31 -4.581039714350E-02  1.750301228614E-01 -3.721753001071E-01
C32 -1.450202660481E-01 -1.670540590402E-01 -3.475534089826E-01
H33 -2.950974719503E-02  2.683345308159E-01 -4.196031220827E-01
C34 -1.245590102832E-01 -4.633051529844E-02 -4.060146262488E-01
H35 -2.033709334277E-01 -3.357066636143E-01 -3.726911438958E-01
H36 -1.678673538415E-01 -1.180996061258E-01 -4.789191458386E-01
C37 -4.469900899401E-01 -4.277127978947E-01  3.970139161887E-01
H38 -4.612244813182E-01 -3.512038263165E-01  4.613733863311E-01
C39  4.942895506392E-01 -3.155687806913E-01  3.256067452026E-01
C40 -3.654279953933E-01  3.547478418419E-01  3.883980255888E-01
H41  4.335096385761E-01 -1.500646595538E-01  3.324927625648E-01
C42 -4.874931798478E-01 -4.128440613901E-01  2.400342838892E-01
H43 -3.194686202405E-01  2.689761547174E-01  4.463192466232E-01
C44 -3.456483265439E-01  2.553121720741E-01  3.084502398509E-01
C45  4.553188097857E-01 -3.018930299503E-01  1.664982062178E-01
C46 -4.057222685396E-01  3.659674343477E-01  2.311110687505E-01
H47 -2.839322954095E-01  9.035641655799E-02  3.018357358341E-01
H48  3.948008198785E-01 -1.361772733190E-01  1.733656959143E-01
C49  4.759980472024E-01 -3.976382214814E-01  8.285817202355E-02
C50 -3.862771399464E-01  2.689814678215E-01  1.491135159368E-01
C51  4.210131871955E-01 -2.852694235922E-01  8.747979354448E-03
C52 -4.427165731292E-01  3.806936401797E-01  7.378858046985E-02
H53 -3.255787660340E-01  1.033122457237E-01  1.423663054462E-01
H54  3.606188317973E-01 -1.194880952668E-01  1.560826968852E-02
C55  4.427165731292E-01 -3.806936401797E-01 -7.378858046985E-02
C56 -4.210131871955E-01  2.852694235922E-01 -8.747979354448E-03
C57  3.862771399464E-01 -2.689814678215E-01 -1.491135159368E-01
C58 -4.759980472024E-01  3.976382214814E-01 -8.285817202355E-02
H59 -3.606188317973E-01  1.194880952668E-01 -1.560826968852E-02
H60  3.255787660340E-01 -1.033122457237E-01 -1.423663054462E-01
C61  4.057222685396E-01 -3.659674343477E-01 -2.311110687505E-01
C62 -4.553188097857E-01  3.018930299503E-01 -1.664982062178E-01
C63  3.456483265439E-01 -2.553121720741E-01 -3.084502398509E-01
C64  4.874931798478E-01  4.128440613901E-01 -2.400342838892E-01
H65 -3.948008198785E-01  1.361772733190E-01 -1.733656959143E-01
H66  2.839322954095E-01 -9.035641655799E-02 -3.018357358341E-01
C67  3.654279953933E-01 -3.547478418419E-01 -3.883980255888E-01
C68 -4.942895506392E-01  3.155687806913E-01 -3.256067452026E-01
H69  3.194686202405E-01 -2.689761547174E-01 -4.463192466232E-01
C70  4.469900899401E-01  4.277127978947E-01 -3.970139161887E-01
H71 -4.335096385761E-01  1.500646595538E-01 -3.324927625648E-01
H72  4.612244813182E-01  3.512038263165E-01 -4.613733863311E-01


#===END

data_OPT_STEP_2

_symmetry_space_group_name_H-M 'P 1'
_cell_length_a      7.90000000
_cell_length_b      6.06000000
_cell_length_c     16.01000000
_cell_angle_alpha  101.900002
_cell_angle_beta  112.599998
_cell_angle_gamma   85.800003

loop_
_atom_site_label
_atom_site_fract_x
_atom_site_fract_y
_atom_site_fract_z
C1  1.245590102832E-01  4.633051529844E-02  4.060146262488E-01
H2  1.678673538415E-01  1.180996061258E-01  4.789191458386E-01
C3  1.450202660481E-01  1.670540590402E-01  3.475534089826E-01
C4  4.581039714350E-02 -1.750301228614E-01  3.721753001071E-01
H5  2.033709334277E-01  3.357066636143E-01  3.726911438958E-01
C6  8.984387989053E-02  7.507082593449E-02  2.509657906795E-01
H7  2.950974719503E-02 -2.683345308159E-01  4.196031220827E-01
C8 -1.110069750540E-02 -2.681101305412E-01  2.808581097585E-01
C9  1.129858608414E-01  1.917225312595E-01  1.902157856798E-01
C10  8.687738424087E-03 -1.486400874549E-01  2.166580559043E-01
H11 -7.299465751155E-02 -4.344636482063E-01  2.550659890322E-01
H12  1.762872017823E-01  3.575967123298E-01  2.160554710698E-01
C13  5.765400610300E-02  9.952688737943E-02  9.517524068880E-02
C14 -4.734772829174E-02 -2.405731085003E-01  1.235069330034E-01
C15  8.110729205942E-02  2.156957482335E-01  3.339838460972E-02
C16 -2.546763373840E-02 -1.233879333272E-01  6.071311419466E-02
H17 -1.094035168281E-01 -4.070249737561E-01  9.782597463585E-02
H18  1.443859552823E-01  3.815194938413E-01  5.914902305515E-02
C19  2.546763373840E-02  1.233879333272E-01 -6.071311419466E-02
C20 -8.110729205942E-02 -2.156957482335E-01 -3.339838460972E-02
C21  4.734772829174E-02  2.405731085003E-01 -1.235069330034E-01
C22 -5.765400610300E-02 -9.952688737943E-02 -9.517524068880E-02
H23 -1.443859552823E-01 -3.815194938413E-01 -5.914902305515E-02
H24  1.094035168281E-01  4.070249737561E-01 -9.782597463585E-02
C25 -8.687738424087E-03  1.486400874549E-01 -2.166580559043E-01
C26 -1.129858608414E-01 -1.917225312595E-01 -1.902157856798E-01
C27  1.110069750540E-02  2.681101305412E-01 -2.808581097585E-01
C28 -8.984387989053E-02 -7.507082593449E-02 -2.509657906795E-01
H29 -1.762872017823E-01 -3.575967123298E-01 -2.160554710698E-01
H30  7.299465751155E-02  4.344636482063E-01 -2.550659890322E-01
C31 -4.581039714350E-02  1.750301228614E-01 -3.721753001071E-01
C32 -1.450202660481E-01 -1.670540590402E-01 -3.475534089826E-01
H33 -2.950974719503E-02  2.683345308159E-01 -4.196031220827E-01
C34 -1.245590102832E-01 -4.633051529844E-02 -4.060146262488E-01
H35 -2.033709334277E-01 -3.357066636143E-01 -3.726911438958E-01
H36 -1.678673538415E-01 -1.180996061258E-01 -4.789191458386E-01
C37 -4.469900899401E-01 -4.277127978947E-01  3.970139161887E-01
H38 -4.612244813182E-01 -3.512038263165E-01  4.613733863311E-01
C39  4.942895506392E-01 -3.155687806913E-01  3.256067452026E-01
C40 -3.654279953933E-01  3.547478418419E-01  3.883980255888E-01
H41  4.335096385761E-01 -1.500646595538E-01  3.324927625648E-01
C42 -4.874931798478E-01 -4.128440613901E-01  2.400342838892E-01
H43 -3.194686202405E-01  2.689761547174E-01  4.463192466232E-01
C44 -3.456483265439E-01  2.553121720741E-01  3.084502398509E-01
C45  4.553188097857E-01 -3.018930299503E-01  1.664982062178E-01
C46 -4.057222685396E-01  3.659674343477E-01  2.311110687505E-01
H47 -2.839322954095E-01  9.035641655799E-02  3.018357358341E-01
H48  3.948008198785E-01 -1.361772733190E-01  1.733656959143E-01
C49  4.759980472024E-01 -3.976382214814E-01  8.285817202355E-02
C50 -3.862771399464E-01  2.689814678215E-01  1.491135159368E-01
C51  4.210131871955E-01 -2.852694235922E-01  8.747979354448E-03
C52 -4.427165731292E-01  3.806936401797E-01  7.378858046985E-02
H53 -3.255787660340E-01  1.033122457237E-01  1.423663054462E-01
H54  3.606188317973E-01 -1.194880952668E-01  1.560826968852E-02
C55  4.427165731292E-01 -3.806936401797E-01 -7.378858046985E-02
C56 -4.210131871955E-01  2.852694235922E-01 -8.747979354448E-03
C57  3.862771399464E-01 -2.689814678215E-01 -1.491135159368E-01
C58 -4.759980472024E-01  3.976382214814E-01 -8.285817202355E-02
H59 -3.606188317973E-01  1.194880952668E-01 -1.560826968852E-02
H60  3.255787660340E-01 -1.033122457237E-01 -1.423663054462E-01
C61  4.057222685396E-01 -3.659674343477E-01 -2.311110687505E-01
C62 -4.553188097857E-01  3.018930299503E-01 -1.664982062178E-01
C63  3.456483265439E-01 -2.553121720741E-01 -3.084502398509E-01
C64  4.874931798478E-01  4.128440613901E-01 -2.400342838892E-01
H65 -3.948008198785E-01  1.361772733190E-01 -1.733656959143E-01
H66  2.839322954095E-01 -9.035641655799E-02 -3.018357358341E-01
C67  3.654279953933E-01 -3.547478418419E-01 -3.883980255888E-01
C68 -4.942895506392E-01  3.155687806913E-01 -3.256067452026E-01
H69  3.194686202405E-01 -2.689761547174E-01 -4.463192466232E-01
C70  4.469900899401E-01  4.277127978947E-01 -3.970139161887E-01
H71 -4.335096385761E-01  1.500646595538E-01 -3.324927625648E-01
H72  4.612244813182E-01  3.512038263165E-01 -4.613733863311E-01


#===END
