###############################################################################
#
#                    CRYSTAL17 CIF FILE
#
###############################################################################

data_OPT_STEP_1

_symmetry_space_group_name_H-M 'P 1'
_cell_length_a      7.90000000
_cell_length_b      6.06000000
_cell_length_c     16.01000000
_cell_angle_alpha  101.900002
_cell_angle_beta  112.599998
_cell_angle_gamma   85.800003

loop_
_atom_site_label
_atom_site_fract_x
_atom_site_fract_y
_atom_site_fract_z
C1  1.335814109097E-01  3.967857427677E-02  4.064444531405E-01
H2  1.771326542209E-01  1.105277567040E-01  4.794152558058E-01
C3  1.601232465599E-01  1.574882307857E-01  3.487111511256E-01
C4  4.763425363513E-02 -1.774303784402E-01  3.718294418516E-01
H5  2.232739464320E-01  3.234037185932E-01  3.743799094706E-01
C6  1.023287597035E-01  6.776677920135E-02  2.519172163778E-01
H7  2.708086993615E-02 -2.686699349442E-01  4.187590145739E-01
C8 -1.017005581734E-02 -2.691040989592E-01  2.804062558569E-01
C9  1.277385062716E-01  1.830663120556E-01  1.914278696710E-01
C10  1.365176830604E-02 -1.514884354874E-01  2.168310986480E-01
H11 -7.603540526330E-02 -4.330104081112E-01  2.539803315537E-01
H12  1.954325458974E-01  3.462532105611E-01  2.175941975192E-01
C13  6.582654074884E-02  9.485782163252E-02  9.586114772538E-02
C14 -4.721071252330E-02 -2.403159275797E-01  1.233641039307E-01
C15  8.858576349117E-02  2.111072075942E-01  3.401483724178E-02
C16 -2.507091799608E-02 -1.234766002772E-01  6.066667370037E-02
H17 -1.141371386073E-01 -4.038730698614E-01  9.723860579755E-02
H18  1.566112036795E-01  3.740783561740E-01  6.008000274304E-02
C19  2.507091799608E-02  1.234766002772E-01 -6.066667370037E-02
C20 -8.858576349117E-02 -2.111072075942E-01 -3.401483724178E-02
C21  4.721071252330E-02  2.403159275797E-01 -1.233641039307E-01
C22 -6.582654074884E-02 -9.485782163252E-02 -9.586114772538E-02
H23 -1.566112036795E-01 -3.740783561740E-01 -6.008000274304E-02
H24  1.141371386073E-01  4.038730698614E-01 -9.723860579755E-02
C25 -1.365176830604E-02  1.514884354874E-01 -2.168310986480E-01
C26 -1.277385062716E-01 -1.830663120556E-01 -1.914278696710E-01
C27  1.017005581734E-02  2.691040989592E-01 -2.804062558569E-01
C28 -1.023287597035E-01 -6.776677920135E-02 -2.519172163778E-01
H29 -1.954325458974E-01 -3.462532105611E-01 -2.175941975192E-01
H30  7.603540526330E-02  4.330104081112E-01 -2.539803315537E-01
C31 -4.763425363513E-02  1.774303784402E-01 -3.718294418516E-01
C32 -1.601232465599E-01 -1.574882307857E-01 -3.487111511256E-01
H33 -2.708086993615E-02  2.686699349442E-01 -4.187590145739E-01
C34 -1.335814109097E-01 -3.967857427677E-02 -4.064444531405E-01
H35 -2.232739464320E-01 -3.234037185932E-01 -3.743799094706E-01
H36 -1.771326542209E-01 -1.105277567040E-01 -4.794152558058E-01
C37 -4.388870706792E-01 -4.057449857513E-01  3.994355532938E-01
H38 -4.552975331548E-01 -3.274735900546E-01  4.630984691796E-01
C39 -4.934265268764E-01 -2.948088161322E-01  3.277510547374E-01
C40 -3.590472430494E-01  3.751845741772E-01  3.918566360231E-01
H41  4.475178086569E-01 -1.280352161306E-01  3.338625318153E-01
C42 -4.755414517639E-01 -3.960673019612E-01  2.425287293061E-01
H43 -3.148810344558E-01  2.910248544439E-01  4.502477376445E-01
C44 -3.383847803853E-01  2.726273727496E-01  3.124299348400E-01
C45  4.677041073800E-01 -2.882093331839E-01  1.681345535100E-01
C46 -3.971666813851E-01  3.803674578279E-01  2.343299285409E-01
H47 -2.777040909858E-01  1.067092090081E-01  3.066344343343E-01
H48  4.093731517067E-01 -1.209770575756E-01  1.744294606945E-01
C49  4.829319955468E-01 -3.903346179141E-01  8.377997665575E-02
C50 -3.811378426889E-01  2.781002905262E-01  1.520148514135E-01
C51  4.248305770195E-01 -2.829086145447E-01  8.172645991230E-03
C52 -4.396771315669E-01  3.853321290840E-01  7.536164790907E-02
H53 -3.226420440832E-01  1.109094013894E-01  1.457812128062E-01
H54  3.669231092601E-01 -1.154657330878E-01  1.463419530039E-02
C55  4.396771315669E-01 -3.853321290840E-01 -7.536164790907E-02
C56 -4.248305770195E-01  2.829086145447E-01 -8.172645991230E-03
C57  3.811378426889E-01 -2.781002905262E-01 -1.520148514135E-01
C58 -4.829319955468E-01  3.903346179141E-01 -8.377997665575E-02
H59 -3.669231092601E-01  1.154657330878E-01 -1.463419530039E-02
H60  3.226420440832E-01 -1.109094013894E-01 -1.457812128062E-01
C61  3.971666813851E-01 -3.803674578279E-01 -2.343299285409E-01
C62 -4.677041073800E-01  2.882093331839E-01 -1.681345535100E-01
C63  3.383847803853E-01 -2.726273727496E-01 -3.124299348400E-01
C64  4.755414517639E-01  3.960673019612E-01 -2.425287293061E-01
H65 -4.093731517067E-01  1.209770575756E-01 -1.744294606945E-01
H66  2.777040909858E-01 -1.067092090081E-01 -3.066344343343E-01
C67  3.590472430494E-01 -3.751845741772E-01 -3.918566360231E-01
C68  4.934265268764E-01  2.948088161322E-01 -3.277510547374E-01
H69  3.148810344558E-01 -2.910248544439E-01 -4.502477376445E-01
C70  4.388870706792E-01  4.057449857513E-01 -3.994355532938E-01
H71 -4.475178086569E-01  1.280352161306E-01 -3.338625318153E-01
H72  4.552975331548E-01  3.274735900546E-01 -4.630984691796E-01


#===END

data_OPT_STEP_2

_symmetry_space_group_name_H-M 'P 1'
_cell_length_a      7.90000000
_cell_length_b      6.06000000
_cell_length_c     16.01000000
_cell_angle_alpha  101.900002
_cell_angle_beta  112.599998
_cell_angle_gamma   85.800003

loop_
_atom_site_label
_atom_site_fract_x
_atom_site_fract_y
_atom_site_fract_z
C1  1.335814109097E-01  3.967857427677E-02  4.064444531405E-01
H2  1.771326542209E-01  1.105277567040E-01  4.794152558058E-01
C3  1.601232465599E-01  1.574882307857E-01  3.487111511256E-01
C4  4.763425363513E-02 -1.774303784402E-01  3.718294418516E-01
H5  2.232739464320E-01  3.234037185932E-01  3.743799094706E-01
C6  1.023287597035E-01  6.776677920135E-02  2.519172163778E-01
H7  2.708086993615E-02 -2.686699349442E-01  4.187590145739E-01
C8 -1.017005581734E-02 -2.691040989592E-01  2.804062558569E-01
C9  1.277385062716E-01  1.830663120556E-01  1.914278696710E-01
C10  1.365176830604E-02 -1.514884354874E-01  2.168310986480E-01
H11 -7.603540526330E-02 -4.330104081112E-01  2.539803315537E-01
H12  1.954325458974E-01  3.462532105611E-01  2.175941975192E-01
C13  6.582654074884E-02  9.485782163252E-02  9.586114772538E-02
C14 -4.721071252330E-02 -2.403159275797E-01  1.233641039307E-01
C15  8.858576349117E-02  2.111072075942E-01  3.401483724178E-02
C16 -2.507091799608E-02 -1.234766002772E-01  6.066667370037E-02
H17 -1.141371386073E-01 -4.038730698614E-01  9.723860579755E-02
H18  1.566112036795E-01  3.740783561740E-01  6.008000274304E-02
C19  2.507091799608E-02  1.234766002772E-01 -6.066667370037E-02
C20 -8.858576349117E-02 -2.111072075942E-01 -3.401483724178E-02
C21  4.721071252330E-02  2.403159275797E-01 -1.233641039307E-01
C22 -6.582654074884E-02 -9.485782163252E-02 -9.586114772538E-02
H23 -1.566112036795E-01 -3.740783561740E-01 -6.008000274304E-02
H24  1.141371386073E-01  4.038730698614E-01 -9.723860579755E-02
C25 -1.365176830604E-02  1.514884354874E-01 -2.168310986480E-01
C26 -1.277385062716E-01 -1.830663120556E-01 -1.914278696710E-01
C27  1.017005581734E-02  2.691040989592E-01 -2.804062558569E-01
C28 -1.023287597035E-01 -6.776677920135E-02 -2.519172163778E-01
H29 -1.954325458974E-01 -3.462532105611E-01 -2.175941975192E-01
H30  7.603540526330E-02  4.330104081112E-01 -2.539803315537E-01
C31 -4.763425363513E-02  1.774303784402E-01 -3.718294418516E-01
C32 -1.601232465599E-01 -1.574882307857E-01 -3.487111511256E-01
H33 -2.708086993615E-02  2.686699349442E-01 -4.187590145739E-01
C34 -1.335814109097E-01 -3.967857427677E-02 -4.064444531405E-01
H35 -2.232739464320E-01 -3.234037185932E-01 -3.743799094706E-01
H36 -1.771326542209E-01 -1.105277567040E-01 -4.794152558058E-01
C37 -4.388870706792E-01 -4.057449857513E-01  3.994355532938E-01
H38 -4.552975331548E-01 -3.274735900546E-01  4.630984691796E-01
C39 -4.934265268764E-01 -2.948088161322E-01  3.277510547374E-01
C40 -3.590472430494E-01  3.751845741772E-01  3.918566360231E-01
H41  4.475178086569E-01 -1.280352161306E-01  3.338625318153E-01
C42 -4.755414517639E-01 -3.960673019612E-01  2.425287293061E-01
H43 -3.148810344558E-01  2.910248544439E-01  4.502477376445E-01
C44 -3.383847803853E-01  2.726273727496E-01  3.124299348400E-01
C45  4.677041073800E-01 -2.882093331839E-01  1.681345535100E-01
C46 -3.971666813851E-01  3.803674578279E-01  2.343299285409E-01
H47 -2.777040909858E-01  1.067092090081E-01  3.066344343343E-01
H48  4.093731517067E-01 -1.209770575756E-01  1.744294606945E-01
C49  4.829319955468E-01 -3.903346179141E-01  8.377997665575E-02
C50 -3.811378426889E-01  2.781002905262E-01  1.520148514135E-01
C51  4.248305770195E-01 -2.829086145447E-01  8.172645991230E-03
C52 -4.396771315669E-01  3.853321290840E-01  7.536164790907E-02
H53 -3.226420440832E-01  1.109094013894E-01  1.457812128062E-01
H54  3.669231092601E-01 -1.154657330878E-01  1.463419530039E-02
C55  4.396771315669E-01 -3.853321290840E-01 -7.536164790907E-02
C56 -4.248305770195E-01  2.829086145447E-01 -8.172645991230E-03
C57  3.811378426889E-01 -2.781002905262E-01 -1.520148514135E-01
C58 -4.829319955468E-01  3.903346179141E-01 -8.377997665575E-02
H59 -3.669231092601E-01  1.154657330878E-01 -1.463419530039E-02
H60  3.226420440832E-01 -1.109094013894E-01 -1.457812128062E-01
C61  3.971666813851E-01 -3.803674578279E-01 -2.343299285409E-01
C62 -4.677041073800E-01  2.882093331839E-01 -1.681345535100E-01
C63  3.383847803853E-01 -2.726273727496E-01 -3.124299348400E-01
C64  4.755414517639E-01  3.960673019612E-01 -2.425287293061E-01
H65 -4.093731517067E-01  1.209770575756E-01 -1.744294606945E-01
H66  2.777040909858E-01 -1.067092090081E-01 -3.066344343343E-01
C67  3.590472430494E-01 -3.751845741772E-01 -3.918566360231E-01
C68  4.934265268764E-01  2.948088161322E-01 -3.277510547374E-01
H69  3.148810344558E-01 -2.910248544439E-01 -4.502477376445E-01
C70  4.388870706792E-01  4.057449857513E-01 -3.994355532938E-01
H71 -4.475178086569E-01  1.280352161306E-01 -3.338625318153E-01
H72  4.552975331548E-01  3.274735900546E-01 -4.630984691796E-01


#===END
