###############################################################################
#
#                    CRYSTAL17 CIF FILE
#
###############################################################################

data_OPT_STEP_1

_symmetry_space_group_name_H-M 'P 1'
_cell_length_a      7.90000000
_cell_length_b      6.06000000
_cell_length_c     16.01000000
_cell_angle_alpha  101.900002
_cell_angle_beta  112.599998
_cell_angle_gamma   85.800003

loop_
_atom_site_label
_atom_site_fract_x
_atom_site_fract_y
_atom_site_fract_z
C1  1.281024973654E-01  4.579941927410E-02  4.178108966666E-01
H2  1.732387261953E-01  1.170985659852E-01  4.909323382376E-01
C3  1.543969074452E-01  1.631542832392E-01  3.598525608175E-01
C4  4.139737733789E-02 -1.707174712005E-01  3.833729145053E-01
H5  2.178650593378E-01  3.288608049360E-01  3.853737637146E-01
C6  9.613984568172E-02  7.287303381196E-02  2.629727941452E-01
H7  2.136040501761E-02 -2.618783860204E-01  4.304557014058E-01
C8 -1.669474540555E-02 -2.632193577910E-01  2.918747635831E-01
C9  1.225968218311E-01  1.875963873422E-01  2.025382832912E-01
C10  7.635634176373E-03 -1.463650965830E-01  2.281054110334E-01
H11 -8.236328991559E-02 -4.272174955628E-01  2.657916204284E-01
H12  1.905252695981E-01  3.506167933880E-01  2.287431434382E-01
C13  6.280338498845E-02  9.774138284686E-02  1.070886230478E-01
C14 -5.124296320268E-02 -2.368829786680E-01  1.346662692804E-01
C15  8.826257711412E-02  2.124747251647E-01  4.543455626089E-02
C16 -2.692513039287E-02 -1.211466678220E-01  7.211901300439E-02
H17 -1.171513814945E-01 -4.009877173434E-01  1.086837772290E-01
H18  1.558526347918E-01  3.755577367397E-01  7.139233332979E-02
C19  2.851313398487E-02  1.223745024306E-01 -4.899141108799E-02
C20 -8.615317914902E-02 -2.115416933819E-01 -2.224722637237E-02
C21  5.360358334238E-02  2.372864801732E-01 -1.116122509594E-01
C22 -6.093156181787E-02 -9.672814339296E-02 -8.392988801573E-02
H23 -1.525694465936E-01 -3.755428114569E-01 -4.827272154435E-02
H24  1.204411396627E-01  4.009964285190E-01 -8.556249187074E-02
C25 -4.786117643305E-03  1.467256066974E-01 -2.048529148180E-01
C26 -1.189159142881E-01 -1.874663592176E-01 -1.791174976254E-01
C27  1.992186210521E-02  2.629343807024E-01 -2.687424989801E-01
C28 -9.275310134154E-02 -7.300447472894E-02 -2.396772973266E-01
H29 -1.849960367831E-01 -3.515965129052E-01 -2.051435414714E-01
H30  8.658743744913E-02  4.266505247616E-01 -2.425047653006E-01
C31 -3.874873460281E-02  1.708029295241E-01 -3.601063151435E-01
C32 -1.497328922840E-01 -1.642299094158E-01 -3.363357254449E-01
H33 -1.893474815089E-02  2.614357364008E-01 -4.074216818720E-01
C34 -1.245157676736E-01 -4.662816822956E-02 -3.944615410670E-01
H35 -2.127623589876E-01 -3.302105538020E-01 -3.617269051192E-01
H36 -1.686712602557E-01 -1.174924296904E-01 -4.673594182998E-01
C37 -4.379660068034E-01 -4.220026973050E-01  3.873348315337E-01
H38 -4.469070055547E-01 -3.428706285974E-01  4.526765283415E-01
C39 -4.989990045649E-01 -3.111775278199E-01  3.155393911837E-01
C40 -3.605628376787E-01  3.578755132750E-01  3.778592754177E-01
H41  4.437024011242E-01 -1.436717134463E-01  3.231279172076E-01
C42 -4.875623177233E-01 -4.118579587170E-01  2.287025724922E-01
H43 -3.111671480383E-01  2.738573709766E-01  4.363991230084E-01
C44 -3.475616317274E-01  2.550637386053E-01  2.966908123898E-01
C45  4.541847302981E-01 -3.017767351112E-01  1.549895607499E-01
C46 -4.099592314723E-01  3.643851489954E-01  2.189536897459E-01
H47 -2.881014690255E-01  8.876252229929E-02  2.897216037934E-01
H48  3.968796921351E-01 -1.342976941844E-01  1.624402014088E-01
C49  4.700079904993E-01 -3.999779846127E-01  7.044648327958E-02
C50 -3.944908206080E-01  2.654429003694E-01  1.363147095264E-01
C51  4.146746241212E-01 -2.879763759312E-01 -3.677909321173E-03
C52 -4.516484580914E-01  3.766349765749E-01  6.083693771846E-02
H53 -3.350193565874E-01  9.907863813303E-02  1.293124278013E-01
H54  3.566018051113E-01 -1.209170764615E-01  3.626112563409E-03
C55  4.345007349812E-01 -3.842942198609E-01 -8.664857674874E-02
C56 -4.318791795384E-01  2.800580174792E-01 -2.200348167347E-02
C57  3.807866200870E-01 -2.710303932710E-01 -1.614831160158E-01
C58 -4.861429456355E-01  3.930524326301E-01 -9.603131412270E-02
H59 -3.719313173125E-01  1.140352548219E-01 -2.898207632559E-02
H60  3.218738737286E-01 -1.044343730484E-01 -1.544231845283E-01
C61  4.032046122499E-01 -3.666394725132E-01 -2.430235110445E-01
C62 -4.639167384189E-01  2.979333517438E-01 -1.794029626707E-01
C63  3.508321539018E-01 -2.518390504599E-01 -3.190255959986E-01
C64  4.832091517269E-01  4.114505899130E-01 -2.521744825448E-01
H65 -4.033445580593E-01  1.322503796590E-01 -1.862580401180E-01
H66  2.901315990331E-01 -8.644069436643E-02 -3.121996989828E-01
C67  3.777004322437E-01 -3.477560293866E-01 -3.976699441155E-01
C68 -4.927630488483E-01  3.169344438191E-01 -3.366523486587E-01
H69  3.389587066495E-01 -2.581195973286E-01 -4.542796340228E-01
C70  4.570256543180E-01  4.336845277730E-01 -4.065362117363E-01
H71 -4.329040478472E-01  1.510126813103E-01 -3.436174447278E-01
H72  4.767789469741E-01  3.595878765788E-01 -4.698323704775E-01


#===END

data_OPT_STEP_2

_symmetry_space_group_name_H-M 'P 1'
_cell_length_a      7.90000000
_cell_length_b      6.06000000
_cell_length_c     16.01000000
_cell_angle_alpha  101.900002
_cell_angle_beta  112.599998
_cell_angle_gamma   85.800003

loop_
_atom_site_label
_atom_site_fract_x
_atom_site_fract_y
_atom_site_fract_z
C1  1.281024973654E-01  4.579941927410E-02  4.178108966666E-01
H2  1.732387261953E-01  1.170985659852E-01  4.909323382376E-01
C3  1.543969074452E-01  1.631542832392E-01  3.598525608175E-01
C4  4.139737733789E-02 -1.707174712005E-01  3.833729145053E-01
H5  2.178650593378E-01  3.288608049360E-01  3.853737637146E-01
C6  9.613984568172E-02  7.287303381196E-02  2.629727941452E-01
H7  2.136040501761E-02 -2.618783860204E-01  4.304557014058E-01
C8 -1.669474540555E-02 -2.632193577910E-01  2.918747635831E-01
C9  1.225968218311E-01  1.875963873422E-01  2.025382832912E-01
C10  7.635634176373E-03 -1.463650965830E-01  2.281054110334E-01
H11 -8.236328991559E-02 -4.272174955628E-01  2.657916204284E-01
H12  1.905252695981E-01  3.506167933880E-01  2.287431434382E-01
C13  6.280338498845E-02  9.774138284686E-02  1.070886230478E-01
C14 -5.124296320268E-02 -2.368829786680E-01  1.346662692804E-01
C15  8.826257711412E-02  2.124747251647E-01  4.543455626089E-02
C16 -2.692513039287E-02 -1.211466678220E-01  7.211901300439E-02
H17 -1.171513814945E-01 -4.009877173434E-01  1.086837772290E-01
H18  1.558526347918E-01  3.755577367397E-01  7.139233332979E-02
C19  2.851313398487E-02  1.223745024306E-01 -4.899141108799E-02
C20 -8.615317914902E-02 -2.115416933819E-01 -2.224722637237E-02
C21  5.360358334238E-02  2.372864801732E-01 -1.116122509594E-01
C22 -6.093156181787E-02 -9.672814339296E-02 -8.392988801573E-02
H23 -1.525694465936E-01 -3.755428114569E-01 -4.827272154435E-02
H24  1.204411396627E-01  4.009964285190E-01 -8.556249187074E-02
C25 -4.786117643305E-03  1.467256066974E-01 -2.048529148180E-01
C26 -1.189159142881E-01 -1.874663592176E-01 -1.791174976254E-01
C27  1.992186210521E-02  2.629343807024E-01 -2.687424989801E-01
C28 -9.275310134154E-02 -7.300447472894E-02 -2.396772973266E-01
H29 -1.849960367831E-01 -3.515965129052E-01 -2.051435414714E-01
H30  8.658743744913E-02  4.266505247616E-01 -2.425047653006E-01
C31 -3.874873460281E-02  1.708029295241E-01 -3.601063151435E-01
C32 -1.497328922840E-01 -1.642299094158E-01 -3.363357254449E-01
H33 -1.893474815089E-02  2.614357364008E-01 -4.074216818720E-01
C34 -1.245157676736E-01 -4.662816822956E-02 -3.944615410670E-01
H35 -2.127623589876E-01 -3.302105538020E-01 -3.617269051192E-01
H36 -1.686712602557E-01 -1.174924296904E-01 -4.673594182998E-01
C37 -4.379660068034E-01 -4.220026973050E-01  3.873348315337E-01
H38 -4.469070055547E-01 -3.428706285974E-01  4.526765283415E-01
C39 -4.989990045649E-01 -3.111775278199E-01  3.155393911837E-01
C40 -3.605628376787E-01  3.578755132750E-01  3.778592754177E-01
H41  4.437024011242E-01 -1.436717134463E-01  3.231279172076E-01
C42 -4.875623177233E-01 -4.118579587170E-01  2.287025724922E-01
H43 -3.111671480383E-01  2.738573709766E-01  4.363991230084E-01
C44 -3.475616317274E-01  2.550637386053E-01  2.966908123898E-01
C45  4.541847302981E-01 -3.017767351112E-01  1.549895607499E-01
C46 -4.099592314723E-01  3.643851489954E-01  2.189536897459E-01
H47 -2.881014690255E-01  8.876252229929E-02  2.897216037934E-01
H48  3.968796921351E-01 -1.342976941844E-01  1.624402014088E-01
C49  4.700079904993E-01 -3.999779846127E-01  7.044648327958E-02
C50 -3.944908206080E-01  2.654429003694E-01  1.363147095264E-01
C51  4.146746241212E-01 -2.879763759312E-01 -3.677909321173E-03
C52 -4.516484580914E-01  3.766349765749E-01  6.083693771846E-02
H53 -3.350193565874E-01  9.907863813303E-02  1.293124278013E-01
H54  3.566018051113E-01 -1.209170764615E-01  3.626112563409E-03
C55  4.345007349812E-01 -3.842942198609E-01 -8.664857674874E-02
C56 -4.318791795384E-01  2.800580174792E-01 -2.200348167347E-02
C57  3.807866200870E-01 -2.710303932710E-01 -1.614831160158E-01
C58 -4.861429456355E-01  3.930524326301E-01 -9.603131412270E-02
H59 -3.719313173125E-01  1.140352548219E-01 -2.898207632559E-02
H60  3.218738737286E-01 -1.044343730484E-01 -1.544231845283E-01
C61  4.032046122499E-01 -3.666394725132E-01 -2.430235110445E-01
C62 -4.639167384189E-01  2.979333517438E-01 -1.794029626707E-01
C63  3.508321539018E-01 -2.518390504599E-01 -3.190255959986E-01
C64  4.832091517269E-01  4.114505899130E-01 -2.521744825448E-01
H65 -4.033445580593E-01  1.322503796590E-01 -1.862580401180E-01
H66  2.901315990331E-01 -8.644069436643E-02 -3.121996989828E-01
C67  3.777004322437E-01 -3.477560293866E-01 -3.976699441155E-01
C68 -4.927630488483E-01  3.169344438191E-01 -3.366523486587E-01
H69  3.389587066495E-01 -2.581195973286E-01 -4.542796340228E-01
C70  4.570256543180E-01  4.336845277730E-01 -4.065362117363E-01
H71 -4.329040478472E-01  1.510126813103E-01 -3.436174447278E-01
H72  4.767789469741E-01  3.595878765788E-01 -4.698323704775E-01


#===END
