###############################################################################
#
#                    CRYSTAL17 CIF FILE
#
###############################################################################

data_OPT_STEP_1

_symmetry_space_group_name_H-M 'P 1'
_cell_length_a     17.97300000
_cell_length_b      7.35200000
_cell_length_c      6.24500000
_cell_angle_alpha   90.000000
_cell_angle_beta   90.646004
_cell_angle_gamma   90.000000

loop_
_atom_site_label
_atom_site_fract_x
_atom_site_fract_y
_atom_site_fract_z
C1  1.583400000000E-01 -3.951000000000E-01  4.904000000000E-01
C2 -1.583400000000E-01  1.049000000000E-01  9.600000000000E-03
C3 -1.583400000000E-01  3.951000000000E-01 -4.904000000000E-01
C4  1.583400000000E-01 -1.049000000000E-01 -9.600000000000E-03
H5  1.707000000000E-01 -3.203000000000E-01 -3.904000000000E-01
H6 -1.707000000000E-01  1.797000000000E-01 -1.096000000000E-01
H7 -1.707000000000E-01  3.203000000000E-01  3.904000000000E-01
H8  1.707000000000E-01 -1.797000000000E-01  1.096000000000E-01
C9  8.549000000000E-02 -3.979000000000E-01  4.133000000000E-01
C10 -8.549000000000E-02  1.021000000000E-01  8.670000000000E-02
C11 -8.549000000000E-02  3.979000000000E-01 -4.133000000000E-01
C12  8.549000000000E-02 -1.021000000000E-01 -8.670000000000E-02
H13  4.860000000000E-02 -3.260000000000E-01  4.807000000000E-01
H14 -4.860000000000E-02  1.740000000000E-01  1.930000000000E-02
H15 -4.860000000000E-02  3.260000000000E-01 -4.807000000000E-01
H16  4.860000000000E-02 -1.740000000000E-01 -1.930000000000E-02
C17  6.641000000000E-02  4.950000000000E-01  2.390000000000E-01
C18 -6.641000000000E-02 -5.000000000000E-03  2.610000000000E-01
C19 -6.641000000000E-02 -4.950000000000E-01 -2.390000000000E-01
C20  6.641000000000E-02  5.000000000000E-03 -2.610000000000E-01
H21  1.650000000000E-02  4.923000000000E-01  1.874000000000E-01
H22 -1.650000000000E-02 -7.700000000000E-03  3.126000000000E-01
H23 -1.650000000000E-02 -4.923000000000E-01 -1.874000000000E-01
H24  1.650000000000E-02  7.700000000000E-03 -3.126000000000E-01
C25  1.206900000000E-01  3.916000000000E-01  1.403000000000E-01
C26 -1.206900000000E-01 -1.084000000000E-01  3.597000000000E-01
C27 -1.206900000000E-01 -3.916000000000E-01 -1.403000000000E-01
C28  1.206900000000E-01  1.084000000000E-01 -3.597000000000E-01
H29  1.081000000000E-01  3.191000000000E-01  1.930000000000E-02
H30 -1.081000000000E-01 -1.809000000000E-01  4.807000000000E-01
H31 -1.081000000000E-01 -3.191000000000E-01 -1.930000000000E-02
H32  1.081000000000E-01  1.809000000000E-01 -4.807000000000E-01
C33  1.934800000000E-01  3.936000000000E-01  2.176000000000E-01
C34 -1.934800000000E-01 -1.064000000000E-01  2.824000000000E-01
C35 -1.934800000000E-01 -3.936000000000E-01 -2.176000000000E-01
C36  1.934800000000E-01  1.064000000000E-01 -2.824000000000E-01
H37  2.301000000000E-01  3.219000000000E-01  1.488000000000E-01
H38 -2.301000000000E-01 -1.781000000000E-01  3.512000000000E-01
H39 -2.301000000000E-01 -3.219000000000E-01 -1.488000000000E-01
H40  2.301000000000E-01  1.781000000000E-01 -3.512000000000E-01
C41  2.138000000000E-01  4.993000000000E-01  3.951000000000E-01
C42 -2.138000000000E-01 -7.000000000003E-04  1.049000000000E-01
C43 -2.138000000000E-01 -4.993000000000E-01 -3.951000000000E-01
C44  2.138000000000E-01  7.000000000001E-04 -1.049000000000E-01
C45  2.916900000000E-01 -4.970000000000E-01  4.786000000000E-01
C46 -2.916900000000E-01  3.000000000000E-03  2.140000000000E-02
C47 -2.916900000000E-01  4.970000000000E-01 -4.786000000000E-01
C48  2.916900000000E-01 -3.000000000000E-03 -2.140000000000E-02
C49  3.071800000000E-01 -4.350000000000E-01 -3.077000000000E-01
C50 -3.071800000000E-01  6.500000000000E-02 -1.923000000000E-01
C51 -3.071800000000E-01  4.350000000000E-01  3.077000000000E-01
C52  3.071800000000E-01 -6.500000000000E-02  1.923000000000E-01
H53  2.669000000000E-01 -4.069000000000E-01 -2.164000000000E-01
H54 -2.669000000000E-01  9.310000000000E-02 -2.836000000000E-01
H55 -2.669000000000E-01  4.069000000000E-01  2.164000000000E-01
H56  2.669000000000E-01 -9.310000000000E-02  2.836000000000E-01
C57  3.779800000000E-01 -4.155000000000E-01 -2.323000000000E-01
C58 -3.779800000000E-01  8.450000000000E-02 -2.677000000000E-01
C59 -3.779800000000E-01  4.155000000000E-01  2.323000000000E-01
C60  3.779800000000E-01 -8.450000000000E-02  2.677000000000E-01
H61  3.861000000000E-01 -3.738000000000E-01 -9.000000000000E-02
H62 -3.861000000000E-01  1.262000000000E-01 -4.100000000000E-01
H63 -3.861000000000E-01  3.738000000000E-01  9.000000000000E-02
H64  3.861000000000E-01 -1.262000000000E-01  4.100000000000E-01
C65  4.403600000000E-01 -4.567000000000E-01 -3.638000000000E-01
C66 -4.403600000000E-01  4.330000000000E-02 -1.362000000000E-01
C67 -4.403600000000E-01  4.567000000000E-01  3.638000000000E-01
C68  4.403600000000E-01 -4.330000000000E-02  1.362000000000E-01
C69  4.260400000000E-01  4.721800000000E-01  4.253000000000E-01
C70 -4.260400000000E-01 -2.782000000000E-02  7.470000000000E-02
C71 -4.260400000000E-01 -4.721800000000E-01 -4.253000000000E-01
C72  4.260400000000E-01  2.782000000000E-02 -7.470000000000E-02
C73  3.508200000000E-01  4.538000000000E-01  3.531000000000E-01
C74 -3.508200000000E-01 -4.620000000000E-02  1.469000000000E-01
C75 -3.508200000000E-01 -4.538000000000E-01 -3.531000000000E-01
C76  3.508200000000E-01  4.620000000000E-02 -1.469000000000E-01
H77  3.413000000000E-01  4.061000000000E-01  2.141000000000E-01
H78 -3.413000000000E-01 -9.390000000000E-02  2.859000000000E-01
H79 -3.413000000000E-01 -4.061000000000E-01 -2.141000000000E-01
H80  3.413000000000E-01  9.390000000000E-02 -2.859000000000E-01
C81 -4.864000000000E-01 -4.304000000000E-01 -2.944000000000E-01
C82  4.864000000000E-01  6.960000000000E-02 -2.056000000000E-01
C83  4.864000000000E-01  4.304000000000E-01  2.944000000000E-01
C84 -4.864000000000E-01 -6.960000000000E-02  2.056000000000E-01
H85 -4.773000000000E-01 -3.830000000000E-01 -1.550000000000E-01
H86  4.773000000000E-01  1.170000000000E-01 -3.450000000000E-01
H87  4.773000000000E-01  3.830000000000E-01  1.550000000000E-01
H88 -4.773000000000E-01 -1.170000000000E-01  3.450000000000E-01


#===END

data_OPT_STEP_2

_symmetry_space_group_name_H-M 'P 1'
_cell_length_a     17.97300000
_cell_length_b      7.35200000
_cell_length_c      6.24500000
_cell_angle_alpha   90.000000
_cell_angle_beta   90.646004
_cell_angle_gamma   90.000000

loop_
_atom_site_label
_atom_site_fract_x
_atom_site_fract_y
_atom_site_fract_z
C1  1.583400000000E-01 -3.951000000000E-01  4.904000000000E-01
C2 -1.583400000000E-01  1.049000000000E-01  9.600000000000E-03
C3 -1.583400000000E-01  3.951000000000E-01 -4.904000000000E-01
C4  1.583400000000E-01 -1.049000000000E-01 -9.600000000000E-03
H5  1.707000000000E-01 -3.203000000000E-01 -3.904000000000E-01
H6 -1.707000000000E-01  1.797000000000E-01 -1.096000000000E-01
H7 -1.707000000000E-01  3.203000000000E-01  3.904000000000E-01
H8  1.707000000000E-01 -1.797000000000E-01  1.096000000000E-01
C9  8.549000000000E-02 -3.979000000000E-01  4.133000000000E-01
C10 -8.549000000000E-02  1.021000000000E-01  8.670000000000E-02
C11 -8.549000000000E-02  3.979000000000E-01 -4.133000000000E-01
C12  8.549000000000E-02 -1.021000000000E-01 -8.670000000000E-02
H13  4.860000000000E-02 -3.260000000000E-01  4.807000000000E-01
H14 -4.860000000000E-02  1.740000000000E-01  1.930000000000E-02
H15 -4.860000000000E-02  3.260000000000E-01 -4.807000000000E-01
H16  4.860000000000E-02 -1.740000000000E-01 -1.930000000000E-02
C17  6.641000000000E-02  4.950000000000E-01  2.390000000000E-01
C18 -6.641000000000E-02 -5.000000000000E-03  2.610000000000E-01
C19 -6.641000000000E-02 -4.950000000000E-01 -2.390000000000E-01
C20  6.641000000000E-02  5.000000000000E-03 -2.610000000000E-01
H21  1.650000000000E-02  4.923000000000E-01  1.874000000000E-01
H22 -1.650000000000E-02 -7.700000000000E-03  3.126000000000E-01
H23 -1.650000000000E-02 -4.923000000000E-01 -1.874000000000E-01
H24  1.650000000000E-02  7.700000000000E-03 -3.126000000000E-01
C25  1.206900000000E-01  3.916000000000E-01  1.403000000000E-01
C26 -1.206900000000E-01 -1.084000000000E-01  3.597000000000E-01
C27 -1.206900000000E-01 -3.916000000000E-01 -1.403000000000E-01
C28  1.206900000000E-01  1.084000000000E-01 -3.597000000000E-01
H29  1.081000000000E-01  3.191000000000E-01  1.930000000000E-02
H30 -1.081000000000E-01 -1.809000000000E-01  4.807000000000E-01
H31 -1.081000000000E-01 -3.191000000000E-01 -1.930000000000E-02
H32  1.081000000000E-01  1.809000000000E-01 -4.807000000000E-01
C33  1.934800000000E-01  3.936000000000E-01  2.176000000000E-01
C34 -1.934800000000E-01 -1.064000000000E-01  2.824000000000E-01
C35 -1.934800000000E-01 -3.936000000000E-01 -2.176000000000E-01
C36  1.934800000000E-01  1.064000000000E-01 -2.824000000000E-01
H37  2.301000000000E-01  3.219000000000E-01  1.488000000000E-01
H38 -2.301000000000E-01 -1.781000000000E-01  3.512000000000E-01
H39 -2.301000000000E-01 -3.219000000000E-01 -1.488000000000E-01
H40  2.301000000000E-01  1.781000000000E-01 -3.512000000000E-01
C41  2.138000000000E-01  4.993000000000E-01  3.951000000000E-01
C42 -2.138000000000E-01 -7.000000000003E-04  1.049000000000E-01
C43 -2.138000000000E-01 -4.993000000000E-01 -3.951000000000E-01
C44  2.138000000000E-01  7.000000000001E-04 -1.049000000000E-01
C45  2.916900000000E-01 -4.970000000000E-01  4.786000000000E-01
C46 -2.916900000000E-01  3.000000000000E-03  2.140000000000E-02
C47 -2.916900000000E-01  4.970000000000E-01 -4.786000000000E-01
C48  2.916900000000E-01 -3.000000000000E-03 -2.140000000000E-02
C49  3.071800000000E-01 -4.350000000000E-01 -3.077000000000E-01
C50 -3.071800000000E-01  6.500000000000E-02 -1.923000000000E-01
C51 -3.071800000000E-01  4.350000000000E-01  3.077000000000E-01
C52  3.071800000000E-01 -6.500000000000E-02  1.923000000000E-01
H53  2.669000000000E-01 -4.069000000000E-01 -2.164000000000E-01
H54 -2.669000000000E-01  9.310000000000E-02 -2.836000000000E-01
H55 -2.669000000000E-01  4.069000000000E-01  2.164000000000E-01
H56  2.669000000000E-01 -9.310000000000E-02  2.836000000000E-01
C57  3.779800000000E-01 -4.155000000000E-01 -2.323000000000E-01
C58 -3.779800000000E-01  8.450000000000E-02 -2.677000000000E-01
C59 -3.779800000000E-01  4.155000000000E-01  2.323000000000E-01
C60  3.779800000000E-01 -8.450000000000E-02  2.677000000000E-01
H61  3.861000000000E-01 -3.738000000000E-01 -9.000000000000E-02
H62 -3.861000000000E-01  1.262000000000E-01 -4.100000000000E-01
H63 -3.861000000000E-01  3.738000000000E-01  9.000000000000E-02
H64  3.861000000000E-01 -1.262000000000E-01  4.100000000000E-01
C65  4.403600000000E-01 -4.567000000000E-01 -3.638000000000E-01
C66 -4.403600000000E-01  4.330000000000E-02 -1.362000000000E-01
C67 -4.403600000000E-01  4.567000000000E-01  3.638000000000E-01
C68  4.403600000000E-01 -4.330000000000E-02  1.362000000000E-01
C69  4.260400000000E-01  4.721800000000E-01  4.253000000000E-01
C70 -4.260400000000E-01 -2.782000000000E-02  7.470000000000E-02
C71 -4.260400000000E-01 -4.721800000000E-01 -4.253000000000E-01
C72  4.260400000000E-01  2.782000000000E-02 -7.470000000000E-02
C73  3.508200000000E-01  4.538000000000E-01  3.531000000000E-01
C74 -3.508200000000E-01 -4.620000000000E-02  1.469000000000E-01
C75 -3.508200000000E-01 -4.538000000000E-01 -3.531000000000E-01
C76  3.508200000000E-01  4.620000000000E-02 -1.469000000000E-01
H77  3.413000000000E-01  4.061000000000E-01  2.141000000000E-01
H78 -3.413000000000E-01 -9.390000000000E-02  2.859000000000E-01
H79 -3.413000000000E-01 -4.061000000000E-01 -2.141000000000E-01
H80  3.413000000000E-01  9.390000000000E-02 -2.859000000000E-01
C81 -4.864000000000E-01 -4.304000000000E-01 -2.944000000000E-01
C82  4.864000000000E-01  6.960000000000E-02 -2.056000000000E-01
C83  4.864000000000E-01  4.304000000000E-01  2.944000000000E-01
C84 -4.864000000000E-01 -6.960000000000E-02  2.056000000000E-01
H85 -4.773000000000E-01 -3.830000000000E-01 -1.550000000000E-01
H86  4.773000000000E-01  1.170000000000E-01 -3.450000000000E-01
H87  4.773000000000E-01  3.830000000000E-01  1.550000000000E-01
H88 -4.773000000000E-01 -1.170000000000E-01  3.450000000000E-01


#===END

data_OPT_STEP_3

_symmetry_space_group_name_H-M 'P 1'
_cell_length_a     18.00287040
_cell_length_b      7.37340371
_cell_length_c      6.27609529
_cell_angle_alpha   90.000000
_cell_angle_beta   90.668558
_cell_angle_gamma   90.000000

loop_
_atom_site_label
_atom_site_fract_x
_atom_site_fract_y
_atom_site_fract_z
C1  1.590149961529E-01 -3.973098835541E-01  4.918760151922E-01
C2 -1.590149961529E-01  1.026901164459E-01  8.123984807763E-03
C3 -1.590149961529E-01  3.973098835541E-01 -4.918760151922E-01
C4  1.590149961529E-01 -1.026901164459E-01 -8.123984807763E-03
H5  1.717221068624E-01 -3.195515901907E-01 -3.865218580905E-01
H6 -1.717221068624E-01  1.804484098093E-01 -1.134781419095E-01
H7 -1.717221068624E-01  3.195515901907E-01  3.865218580905E-01
H8  1.717221068624E-01 -1.804484098093E-01  1.134781419095E-01
C9  8.637780324631E-02 -3.993476445339E-01  4.142921756429E-01
C10 -8.637780324631E-02  1.006523554661E-01  8.570782435708E-02
C11 -8.637780324631E-02  3.993476445339E-01 -4.142921756429E-01
C12  8.637780324631E-02 -1.006523554661E-01 -8.570782435708E-02
H13  4.849024111513E-02 -3.249035821645E-01  4.830659934313E-01
H14 -4.849024111513E-02  1.750964178355E-01  1.693400656867E-02
H15 -4.849024111513E-02  3.249035821645E-01 -4.830659934313E-01
H16  4.849024111513E-02 -1.750964178355E-01 -1.693400656867E-02
C17  6.741649799096E-02  4.945556004105E-01  2.396673906599E-01
C18 -6.741649799096E-02 -5.444399589479E-03  2.603326093401E-01
C19 -6.741649799096E-02 -4.945556004105E-01 -2.396673906599E-01
C20  6.741649799096E-02  5.444399589478E-03 -2.603326093401E-01
H21  1.608210859296E-02  4.919410013120E-01  1.862829336500E-01
H22 -1.608210859296E-02 -8.058998688049E-03  3.137170663500E-01
H23 -1.608210859296E-02 -4.919410013120E-01 -1.862829336500E-01
H24  1.608210859296E-02  8.058998688049E-03 -3.137170663500E-01
C25  1.217635271650E-01  3.921079974341E-01  1.406384460439E-01
C26 -1.217635271650E-01 -1.078920025659E-01  3.593615539561E-01
C27 -1.217635271650E-01 -3.921079974341E-01 -1.406384460439E-01
C28  1.217635271650E-01  1.078920025659E-01 -3.593615539561E-01
H29  1.088345031511E-01  3.168803945339E-01  1.697142381500E-02
H30 -1.088345031511E-01 -1.831196054661E-01  4.830285761850E-01
H31 -1.088345031511E-01 -3.168803945339E-01 -1.697142381500E-02
H32  1.088345031511E-01  1.831196054661E-01 -4.830285761850E-01
C33  1.943891192557E-01  3.938489057332E-01  2.179798216839E-01
C34 -1.943891192557E-01 -1.061510942668E-01  2.820201783161E-01
C35 -1.943891192557E-01 -3.938489057332E-01 -2.179798216839E-01
C36  1.943891192557E-01  1.061510942668E-01 -2.820201783161E-01
H37  2.318683476651E-01  3.186154896233E-01  1.486284266877E-01
H38 -2.318683476651E-01 -1.813845103767E-01  3.513715733123E-01
H39 -2.318683476651E-01 -3.186154896233E-01 -1.486284266877E-01
H40  2.318683476651E-01  1.813845103767E-01 -3.513715733123E-01
C41  2.144884302058E-01  4.986389131271E-01  3.955188214715E-01
C42 -2.144884302058E-01 -1.361086872926E-03  1.044811785285E-01
C43 -2.144884302058E-01 -4.986389131271E-01 -3.955188214715E-01
C44  2.144884302058E-01  1.361086872925E-03 -1.044811785285E-01
C45  2.921764275662E-01 -4.973147370008E-01  4.783890912410E-01
C46 -2.921764275662E-01  2.685262999218E-03  2.161090875897E-02
C47 -2.921764275662E-01  4.973147370008E-01 -4.783890912410E-01
C48  2.921764275662E-01 -2.685262999219E-03 -2.161090875897E-02
C49  3.074971396561E-01 -4.347776864896E-01 -3.093201421438E-01
C50 -3.074971396561E-01  6.522231351037E-02 -1.906798578562E-01
C51 -3.074971396561E-01  4.347776864896E-01  3.093201421438E-01
C52  3.074971396561E-01 -6.522231351037E-02  1.906798578562E-01
H53  2.660107193542E-01 -4.060088197893E-01 -2.156307804948E-01
H54 -2.660107193542E-01  9.399118021068E-02 -2.843692195052E-01
H55 -2.660107193542E-01  4.060088197893E-01  2.156307804948E-01
H56  2.660107193542E-01 -9.399118021068E-02  2.843692195052E-01
C57  3.782385692677E-01 -4.158457771875E-01 -2.340088186699E-01
C58 -3.782385692677E-01  8.415422281249E-02 -2.659911813301E-01
C59 -3.782385692677E-01  4.158457771875E-01  2.340088186699E-01
C60  3.782385692677E-01 -8.415422281249E-02  2.659911813301E-01
H61  3.866460314750E-01 -3.737585189174E-01 -8.767620610687E-02
H62 -3.866460314750E-01  1.262414810826E-01 -4.123237938931E-01
H63 -3.866460314750E-01  3.737585189174E-01  8.767620610687E-02
H64  3.866460314750E-01 -1.262414810826E-01  4.123237938931E-01
C65  4.404730012808E-01 -4.570175021563E-01 -3.646430738006E-01
C66 -4.404730012808E-01  4.298249784373E-02 -1.353569261994E-01
C67 -4.404730012808E-01  4.570175021563E-01  3.646430738006E-01
C68  4.404730012808E-01 -4.298249784373E-02  1.353569261994E-01
C69  4.261993747028E-01  4.723755428806E-01  4.254276602527E-01
C70 -4.261993747028E-01 -2.762445711945E-02  7.457233974730E-02
C71 -4.261993747028E-01 -4.723755428806E-01 -4.254276602527E-01
C72  4.261993747028E-01  2.762445711945E-02 -7.457233974730E-02
C73  3.511515085430E-01  4.526158193988E-01  3.539334171623E-01
C74 -3.511515085430E-01 -4.738418060121E-02  1.460665828377E-01
C75 -3.511515085430E-01 -4.526158193988E-01 -3.539334171623E-01
C76  3.511515085430E-01  4.738418060121E-02 -1.460665828377E-01
H77  3.415572410831E-01  4.051972140973E-01  2.104000111419E-01
H78 -3.415572410831E-01 -9.480278590267E-02  2.895999888581E-01
H79 -3.415572410831E-01 -4.051972140973E-01 -2.104000111419E-01
H80  3.415572410831E-01  9.480278590267E-02 -2.895999888581E-01
C81 -4.864254589422E-01 -4.305825657767E-01 -2.951979718393E-01
C82  4.864254589422E-01  6.941743422332E-02 -2.048020281607E-01
C83  4.864254589422E-01  4.305825657767E-01  2.951979718393E-01
C84 -4.864254589422E-01 -6.941743422332E-02  2.048020281607E-01
H85 -4.770836555811E-01 -3.819023597549E-01 -1.520559437038E-01
H86  4.770836555811E-01  1.180976402451E-01 -3.479440562962E-01
H87  4.770836555811E-01  3.819023597549E-01  1.520559437038E-01
H88 -4.770836555811E-01 -1.180976402451E-01  3.479440562962E-01


#===END

data_OPT_STEP_4

_symmetry_space_group_name_H-M 'P 1'
_cell_length_a     18.06793379
_cell_length_b      7.42765672
_cell_length_c      6.33875054
_cell_angle_alpha   90.000000
_cell_angle_beta   90.739359
_cell_angle_gamma   90.000000

loop_
_atom_site_label
_atom_site_fract_x
_atom_site_fract_y
_atom_site_fract_z
C1  1.602652365948E-01 -3.934887309663E-01  4.863458356090E-01
C2 -1.602652365948E-01  1.065112690337E-01  1.365416439103E-02
C3 -1.602652365948E-01  3.934887309663E-01 -4.863458356090E-01
C4  1.602652365948E-01 -1.065112690337E-01 -1.365416439103E-02
H5  1.730617682257E-01 -3.123312699953E-01 -3.910679321383E-01
H6 -1.730617682257E-01  1.876687300047E-01 -1.089320678617E-01
H7 -1.730617682257E-01  3.123312699953E-01  3.910679321383E-01
H8  1.730617682257E-01 -1.876687300047E-01  1.089320678617E-01
C9  8.752937649772E-02 -3.986708943092E-01  4.121181402085E-01
C10 -8.752937649772E-02  1.013291056908E-01  8.788185979154E-02
C11 -8.752937649772E-02  3.986708943092E-01 -4.121181402085E-01
C12  8.752937649772E-02 -1.013291056908E-01 -8.788185979154E-02
H13  4.875326295190E-02 -3.228199152469E-01  4.826457002114E-01
H14 -4.875326295190E-02  1.771800847531E-01  1.735429978860E-02
H15 -4.875326295190E-02  3.228199152469E-01 -4.826457002114E-01
H16  4.875326295190E-02 -1.771800847531E-01 -1.735429978860E-02
C17  6.847458858683E-02  4.953263318251E-01  2.395246146026E-01
C18 -6.847458858683E-02 -4.673668174934E-03  2.604753853974E-01
C19 -6.847458858683E-02 -4.953263318251E-01 -2.395246146026E-01
C20  6.847458858683E-02  4.673668174933E-03 -2.604753853974E-01
H21  1.585686747876E-02  4.928791055792E-01  1.845941081517E-01
H22 -1.585686747876E-02 -7.120894420794E-03  3.154058918483E-01
H23 -1.585686747876E-02 -4.928791055792E-01 -1.845941081517E-01
H24  1.585686747876E-02  7.120894420794E-03 -3.154058918483E-01
C25  1.224972836746E-01  3.911003768470E-01  1.442874531875E-01
C26 -1.224972836746E-01 -1.088996231530E-01  3.557125468125E-01
C27 -1.224972836746E-01 -3.911003768470E-01 -1.442874531875E-01
C28  1.224972836746E-01  1.088996231530E-01 -3.557125468125E-01
H29  1.093604472566E-01  3.127695833195E-01  1.934870056097E-02
H30 -1.093604472566E-01 -1.872304166805E-01  4.806512994390E-01
H31 -1.093604472566E-01 -3.127695833195E-01 -1.934870056097E-02
H32  1.093604472566E-01  1.872304166805E-01 -4.806512994390E-01
C33  1.948254537684E-01  3.927589252429E-01  2.215641046323E-01
C34 -1.948254537684E-01 -1.072410747571E-01  2.784358953677E-01
C35 -1.948254537684E-01 -3.927589252429E-01 -2.215641046323E-01
C36  1.948254537684E-01  1.072410747571E-01 -2.784358953677E-01
H37  2.324186745915E-01  3.101246574315E-01  1.557908407778E-01
H38 -2.324186745915E-01 -1.898753425685E-01  3.442091592222E-01
H39 -2.324186745915E-01 -3.101246574315E-01 -1.557908407778E-01
H40  2.324186745915E-01  1.898753425685E-01 -3.442091592222E-01
C41  2.152445483824E-01  4.994127428687E-01  3.951150755414E-01
C42 -2.152445483824E-01 -5.872571313061E-04  1.048849244586E-01
C43 -2.152445483824E-01 -4.994127428687E-01 -3.951150755414E-01
C44  2.152445483824E-01  5.872571313059E-04 -1.048849244586E-01
C45  2.927729805654E-01 -4.967329571606E-01  4.772780691596E-01
C46 -2.927729805654E-01  3.267042839411E-03  2.272193084041E-02
C47 -2.927729805654E-01  4.967329571606E-01 -4.772780691596E-01
C48  2.927729805654E-01 -3.267042839411E-03 -2.272193084041E-02
C49  3.080930363676E-01 -4.378399867363E-01 -3.111459211165E-01
C50 -3.080930363676E-01  6.216001326375E-02 -1.888540788835E-01
C51 -3.080930363676E-01  4.378399867363E-01  3.111459211165E-01
C52  3.080930363676E-01 -6.216001326375E-02  1.888540788835E-01
H53  2.656763001347E-01 -4.109425068472E-01 -2.143934384510E-01
H54 -2.656763001347E-01  8.905749315279E-02 -2.856065615490E-01
H55 -2.656763001347E-01  4.109425068472E-01  2.143934384510E-01
H56  2.656763001347E-01 -8.905749315279E-02  2.856065615490E-01
C57  3.786669924650E-01 -4.167633020411E-01 -2.372884018449E-01
C58 -3.786669924650E-01  8.323669795888E-02 -2.627115981551E-01
C59 -3.786669924650E-01  4.167633020411E-01  2.372884018449E-01
C60  3.786669924650E-01 -8.323669795888E-02  2.627115981551E-01
H61  3.874552462734E-01 -3.728697130742E-01 -8.846363424153E-02
H62 -3.874552462734E-01  1.271302869258E-01 -4.115363657585E-01
H63 -3.874552462734E-01  3.728697130742E-01  8.846363424153E-02
H64  3.874552462734E-01 -1.271302869258E-01  4.115363657585E-01
C65  4.406549614364E-01 -4.577726587912E-01 -3.662015128145E-01
C66 -4.406549614364E-01  4.222734120879E-02 -1.337984871855E-01
C67 -4.406549614364E-01  4.577726587912E-01  3.662015128145E-01
C68  4.406549614364E-01 -4.222734120879E-02  1.337984871855E-01
C69  4.264013517606E-01  4.716650399449E-01  4.261578179449E-01
C70 -4.264013517606E-01 -2.833496005507E-02  7.384218205510E-02
C71 -4.264013517606E-01 -4.716650399449E-01 -4.261578179449E-01
C72  4.264013517606E-01  2.833496005507E-02 -7.384218205510E-02
C73  3.516692930423E-01  4.568714302589E-01  3.527787619803E-01
C74 -3.516692930423E-01 -4.312856974108E-02  1.472212380197E-01
C75 -3.516692930423E-01 -4.568714302589E-01 -3.527787619803E-01
C76  3.516692930423E-01  4.312856974108E-02 -1.472212380197E-01
H77  3.421926043502E-01  4.102258520592E-01  2.053729711985E-01
H78 -3.421926043502E-01 -8.977414794083E-02  2.946270288015E-01
H79 -3.421926043502E-01 -4.102258520592E-01 -2.053729711985E-01
H80  3.421926043502E-01  8.977414794083E-02 -2.946270288015E-01
C81 -4.864768567676E-01 -4.312649647511E-01 -2.970974036409E-01
C82  4.864768567676E-01  6.873503524892E-02 -2.029025963591E-01
C83  4.864768567676E-01  4.312649647511E-01  2.970974036409E-01
C84 -4.864768567676E-01 -6.873503524892E-02  2.029025963591E-01
H85 -4.770009169808E-01 -3.826487200290E-01 -1.505641817847E-01
H86  4.770009169808E-01  1.173512799710E-01 -3.494358182153E-01
H87  4.770009169808E-01  3.826487200290E-01  1.505641817847E-01
H88 -4.770009169808E-01 -1.173512799710E-01  3.494358182153E-01


#===END

data_OPT_STEP_5

_symmetry_space_group_name_H-M 'P 1'
_cell_length_a     18.11072163
_cell_length_b      7.59744458
_cell_length_c      6.36953298
_cell_angle_alpha   90.000000
_cell_angle_beta   90.717666
_cell_angle_gamma   90.000000

loop_
_atom_site_label
_atom_site_fract_x
_atom_site_fract_y
_atom_site_fract_z
C1  1.610417887707E-01 -3.961829345072E-01  4.876536161608E-01
C2 -1.610417887707E-01  1.038170654928E-01  1.234638383915E-02
C3 -1.610417887707E-01  3.961829345072E-01 -4.876536161608E-01
C4  1.610417887707E-01 -1.038170654928E-01 -1.234638383915E-02
H5  1.744713517286E-01 -3.092554480140E-01 -3.923812644031E-01
H6 -1.744713517286E-01  1.907445519860E-01 -1.076187355969E-01
H7 -1.744713517286E-01  3.092554480140E-01  3.923812644031E-01
H8  1.744713517286E-01 -1.907445519860E-01  1.076187355969E-01
C9  8.950722570712E-02 -3.916145683243E-01  4.050433318749E-01
C10 -8.950722570712E-02  1.083854316757E-01  9.495666812509E-02
C11 -8.950722570712E-02  3.916145683243E-01 -4.050433318749E-01
C12  8.950722570712E-02 -1.083854316757E-01 -9.495666812509E-02
H13  5.006983387189E-02 -3.152671697668E-01  4.777647293778E-01
H14 -5.006983387189E-02  1.847328302332E-01  2.223527062223E-02
H15 -5.006983387189E-02  3.152671697668E-01 -4.777647293778E-01
H16  5.006983387189E-02 -1.847328302332E-01 -2.223527062223E-02
C17  6.950555295021E-02  4.973848121181E-01  2.401974548143E-01
C18 -6.950555295021E-02 -2.615187881865E-03  2.598025451857E-01
C19 -6.950555295021E-02 -4.973848121181E-01 -2.401974548143E-01
C20  6.950555295021E-02  2.615187881865E-03 -2.598025451857E-01
H21  1.566746429633E-02  4.951302341901E-01  1.843797534815E-01
H22 -1.566746429633E-02 -4.869765809916E-03  3.156202465185E-01
H23 -1.566746429633E-02 -4.951302341901E-01 -1.843797534815E-01
H24  1.566746429633E-02  4.869765809916E-03 -3.156202465185E-01
C25  1.228139751908E-01  3.895985662612E-01  1.506700751013E-01
C26 -1.228139751908E-01 -1.104014337388E-01  3.493299248987E-01
C27 -1.228139751908E-01 -3.895985662612E-01 -1.506700751013E-01
C28  1.228139751908E-01  1.104014337388E-01 -3.493299248987E-01
H29  1.084613157427E-01  3.001142276287E-01  3.304061198750E-02
H30 -1.084613157427E-01 -1.998857723713E-01  4.669593880125E-01
H31 -1.084613157427E-01 -3.001142276287E-01 -3.304061198750E-02
H32  1.084613157427E-01  1.998857723713E-01 -4.669593880125E-01
C33  1.942985406457E-01  3.850488161238E-01  2.331582059014E-01
C34 -1.942985406457E-01 -1.149511838762E-01  2.668417940986E-01
C35 -1.942985406457E-01 -3.850488161238E-01 -2.331582059014E-01
C36  1.942985406457E-01  1.149511838762E-01 -2.668417940986E-01
H37  2.300849098771E-01  2.805441572822E-01  1.856714697205E-01
H38 -2.300849098771E-01 -2.194558427178E-01  3.143285302795E-01
H39 -2.300849098771E-01 -2.805441572822E-01 -1.856714697205E-01
H40  2.300849098771E-01  2.194558427178E-01 -3.143285302795E-01
C41  2.160479625660E-01 -4.992804272969E-01  3.951565324028E-01
C42 -2.160479625660E-01  7.195727031055E-04  1.048434675972E-01
C43 -2.160479625660E-01  4.992804272969E-01 -3.951565324028E-01
C44  2.160479625660E-01 -7.195727031056E-04 -1.048434675972E-01
C45  2.932286259486E-01 -4.964147712955E-01  4.772021027229E-01
C46 -2.932286259486E-01  3.585228704546E-03  2.279789727711E-02
C47 -2.932286259486E-01  4.964147712955E-01 -4.772021027229E-01
C48  2.932286259486E-01 -3.585228704547E-03 -2.279789727711E-02
C49  3.085092723288E-01 -4.346969502560E-01 -3.140789325355E-01
C50 -3.085092723288E-01  6.530304974400E-02 -1.859210674645E-01
C51 -3.085092723288E-01  4.346969502560E-01  3.140789325355E-01
C52  3.085092723288E-01 -6.530304974400E-02  1.859210674645E-01
H53  2.651830111898E-01 -4.124976350610E-01 -2.131556577764E-01
H54 -2.651830111898E-01  8.750236493900E-02 -2.868443422236E-01
H55 -2.651830111898E-01  4.124976350610E-01  2.131556577764E-01
H56  2.651830111898E-01 -8.750236493900E-02  2.868443422236E-01
C57  3.789197348748E-01 -4.208466734210E-01 -2.379290951803E-01
C58 -3.789197348748E-01  7.915332657901E-02 -2.620709048197E-01
C59 -3.789197348748E-01  4.208466734210E-01  2.379290951803E-01
C60  3.789197348748E-01 -7.915332657901E-02  2.620709048197E-01
H61  3.880885757782E-01 -3.774674461022E-01 -8.584096923954E-02
H62 -3.880885757782E-01  1.225325538978E-01 -4.141590307605E-01
H63 -3.880885757782E-01  3.774674461022E-01  8.584096923954E-02
H64  3.880885757782E-01 -1.225325538978E-01  4.141590307605E-01
C65  4.407611544836E-01 -4.563903151140E-01 -3.679829934300E-01
C66 -4.407611544836E-01  4.360968488600E-02 -1.320170065700E-01
C67 -4.407611544836E-01  4.563903151140E-01  3.679829934300E-01
C68  4.407611544836E-01 -4.360968488600E-02  1.320170065700E-01
C69  4.265570730635E-01  4.830717421718E-01  4.213936571031E-01
C70 -4.265570730635E-01 -1.692825782816E-02  7.860634289692E-02
C71 -4.265570730635E-01 -4.830717421718E-01 -4.213936571031E-01
C72  4.265570730635E-01  1.692825782816E-02 -7.860634289692E-02
C73  3.518764645386E-01  4.539239926901E-01  3.553517082169E-01
C74 -3.518764645386E-01 -4.607600730991E-02  1.446482917831E-01
C75 -3.518764645386E-01 -4.539239926901E-01 -3.553517082169E-01
C76  3.518764645386E-01  4.607600730991E-02 -1.446482917831E-01
H77  3.426081118702E-01  4.107737676624E-01  2.030388210029E-01
H78 -3.426081118702E-01 -8.922623233756E-02  2.969611789971E-01
H79 -3.426081118702E-01 -4.107737676624E-01 -2.030388210029E-01
H80  3.426081118702E-01  8.922623233756E-02 -2.969611789971E-01
C81 -4.864969561298E-01 -4.388913046120E-01 -2.950865690616E-01
C82  4.864969561298E-01  6.110869538797E-02 -2.049134309384E-01
C83  4.864969561298E-01  4.388913046120E-01  2.950865690616E-01
C84 -4.864969561298E-01 -6.110869538797E-02  2.049134309384E-01
H85 -4.769022800235E-01 -3.941995010547E-01 -1.435842372992E-01
H86  4.769022800235E-01  1.058004989453E-01 -3.564157627008E-01
H87  4.769022800235E-01  3.941995010547E-01  1.435842372992E-01
H88 -4.769022800235E-01 -1.058004989453E-01  3.564157627008E-01


#===END

data_OPT_STEP_6

_symmetry_space_group_name_H-M 'P 1'
_cell_length_a     18.17152434
_cell_length_b      7.89302938
_cell_length_c      6.41619709
_cell_angle_alpha   90.000000
_cell_angle_beta   91.129141
_cell_angle_gamma   90.000000

loop_
_atom_site_label
_atom_site_fract_x
_atom_site_fract_y
_atom_site_fract_z
C1  1.650393260510E-01 -3.730669943599E-01  4.681248329043E-01
C2 -1.650393260510E-01  1.269330056401E-01  3.187516709566E-02
C3 -1.650393260510E-01  3.730669943599E-01 -4.681248329043E-01
C4  1.650393260510E-01 -1.269330056401E-01 -3.187516709566E-02
H5  1.818896007238E-01 -2.577851440796E-01 -4.359846853568E-01
H6 -1.818896007238E-01  2.422148559204E-01 -6.401531464321E-02
H7 -1.818896007238E-01  2.577851440796E-01  4.359846853568E-01
H8  1.818896007238E-01 -2.422148559204E-01  6.401531464321E-02
C9  9.218917508286E-02 -3.815240281567E-01  3.979164728629E-01
C10 -9.218917508286E-02  1.184759718433E-01  1.020835271371E-01
C11 -9.218917508286E-02  3.815240281567E-01 -3.979164728629E-01
C12  9.218917508286E-02 -1.184759718433E-01 -1.020835271371E-01
H13  5.226746600856E-02 -3.030005322964E-01  4.717272133300E-01
H14 -5.226746600856E-02  1.969994677036E-01  2.827278666997E-02
H15 -5.226746600856E-02  3.030005322964E-01 -4.717272133300E-01
H16  5.226746600856E-02 -1.969994677036E-01 -2.827278666997E-02
C17  7.029735035703E-02  4.972829571090E-01  2.475121068403E-01
C18 -7.029735035703E-02 -2.717042891006E-03  2.524878931597E-01
C19 -7.029735035703E-02 -4.972829571090E-01 -2.475121068403E-01
C20  7.029735035703E-02  2.717042891006E-03 -2.524878931597E-01
H21  1.496513606479E-02  4.968169080857E-01  1.876918774444E-01
H22 -1.496513606479E-02 -3.183091914267E-03  3.123081225556E-01
H23 -1.496513606479E-02 -4.968169080857E-01 -1.876918774444E-01
H24  1.496513606479E-02  3.183091914267E-03 -3.123081225556E-01
C25  1.208876775497E-01  3.701572313104E-01  1.813719673658E-01
C26 -1.208876775497E-01 -1.298427686896E-01  3.186280326342E-01
C27 -1.208876775497E-01 -3.701572313104E-01 -1.813719673658E-01
C28  1.208876775497E-01  1.298427686896E-01 -3.186280326342E-01
H29  1.024345136093E-01  2.451463331328E-01  9.357095552862E-02
H30 -1.024345136093E-01 -2.548536668672E-01  4.064290444714E-01
H31 -1.024345136093E-01 -2.451463331328E-01 -9.357095552862E-02
H32  1.024345136093E-01  2.548536668672E-01 -4.064290444714E-01
C33  1.945197531518E-01  3.873019317174E-01  2.445934058023E-01
C34 -1.945197531518E-01 -1.126980682826E-01  2.554065941977E-01
C35 -1.945197531518E-01 -3.873019317174E-01 -2.445934058023E-01
C36  1.945197531518E-01  1.126980682826E-01 -2.554065941977E-01
H37  2.314757429086E-01  2.899552592212E-01  1.916390199767E-01
H38 -2.314757429086E-01 -2.100447407788E-01  3.083609800233E-01
H39 -2.314757429086E-01 -2.899552592212E-01 -1.916390199767E-01
H40  2.314757429086E-01  2.100447407788E-01 -3.083609800233E-01
C41  2.172218269155E-01 -4.936894793176E-01  3.979906286395E-01
C42 -2.172218269155E-01  6.310520682350E-03  1.020093713605E-01
C43 -2.172218269155E-01  4.936894793176E-01 -3.979906286395E-01
C44  2.172218269155E-01 -6.310520682351E-03 -1.020093713605E-01
C45  2.942741714425E-01 -4.881609884215E-01  4.771295122697E-01
C46 -2.942741714425E-01  1.183901157853E-02  2.287048773032E-02
C47 -2.942741714425E-01  4.881609884215E-01 -4.771295122697E-01
C48  2.942741714425E-01 -1.183901157853E-02 -2.287048773032E-02
C49  3.102233065907E-01 -4.291013474480E-01 -3.159007536790E-01
C50 -3.102233065907E-01  7.089865255201E-02 -1.840992463210E-01
C51 -3.102233065907E-01  4.291013474480E-01  3.159007536790E-01
C52  3.102233065907E-01 -7.089865255201E-02  1.840992463210E-01
H53  2.659914318455E-01 -4.131904126535E-01 -2.092048386231E-01
H54 -2.659914318455E-01  8.680958734652E-02 -2.907951613769E-01
H55 -2.659914318455E-01  4.131904126535E-01  2.092048386231E-01
H56  2.659914318455E-01 -8.680958734652E-02  2.907951613769E-01
C57  3.807092525078E-01 -4.161662664138E-01 -2.413777748693E-01
C58 -3.807092525078E-01  8.383373358621E-02 -2.586222251307E-01
C59 -3.807092525078E-01  4.161662664138E-01  2.413777748693E-01
C60  3.807092525078E-01 -8.383373358621E-02  2.586222251307E-01
H61  3.909512618700E-01 -3.734135301498E-01 -8.518602396503E-02
H62 -3.909512618700E-01  1.265864698502E-01 -4.148139760350E-01
H63 -3.909512618700E-01  3.734135301498E-01  8.518602396503E-02
H64  3.909512618700E-01 -1.265864698502E-01  4.148139760350E-01
C65  4.416799442376E-01 -4.572673861543E-01 -3.683574771138E-01
C66 -4.416799442376E-01  4.273261384570E-02 -1.316425228862E-01
C67 -4.416799442376E-01  4.572673861543E-01  3.683574771138E-01
C68  4.416799442376E-01 -4.273261384570E-02  1.316425228862E-01
C69  4.265118042760E-01  4.788733100343E-01  4.255326881150E-01
C70 -4.265118042760E-01 -2.112668996572E-02  7.446731188501E-02
C71 -4.265118042760E-01 -4.788733100343E-01 -4.255326881150E-01
C72  4.265118042760E-01  2.112668996572E-02 -7.446731188501E-02
C73  3.520016993934E-01  4.636333042832E-01  3.552774979610E-01
C74 -3.520016993934E-01 -3.636669571683E-02  1.447225020390E-01
C75 -3.520016993934E-01 -4.636333042832E-01 -3.552774979610E-01
C76  3.520016993934E-01  3.636669571683E-02 -1.447225020390E-01
H77  3.421134964837E-01  4.280414256727E-01  1.955261362646E-01
H78 -3.421134964837E-01 -7.195857432731E-02  3.044738637354E-01
H79 -3.421134964837E-01 -4.280414256727E-01 -1.955261362646E-01
H80  3.421134964837E-01  7.195857432731E-02 -3.044738637354E-01
C81 -4.856233761875E-01 -4.350389705616E-01 -2.999451385850E-01
C82  4.856233761875E-01  6.496102943844E-02 -2.000548614150E-01
C83  4.856233761875E-01  4.350389705616E-01  2.999451385850E-01
C84 -4.856233761875E-01 -6.496102943844E-02  2.000548614150E-01
H85 -4.752703114595E-01 -3.916837579665E-01 -1.439602192755E-01
H86  4.752703114595E-01  1.083162420335E-01 -3.560397807245E-01
H87  4.752703114595E-01  3.916837579665E-01  1.439602192755E-01
H88 -4.752703114595E-01 -1.083162420335E-01  3.560397807245E-01


#===END

data_OPT_STEP_7

_symmetry_space_group_name_H-M 'P 1'
_cell_length_a     18.12380645
_cell_length_b      7.63826407
_cell_length_c      6.38766080
_cell_angle_alpha   90.000000
_cell_angle_beta   90.758241
_cell_angle_gamma   90.000000

loop_
_atom_site_label
_atom_site_fract_x
_atom_site_fract_y
_atom_site_fract_z
C1  1.621663052995E-01 -3.923672395529E-01  4.840046959991E-01
C2 -1.621663052995E-01  1.076327604471E-01  1.599530400087E-02
C3 -1.621663052995E-01  3.923672395529E-01 -4.840046959991E-01
C4  1.621663052995E-01 -1.076327604471E-01 -1.599530400087E-02
H5  1.765989300961E-01 -2.956914719120E-01 -4.026783080819E-01
H6 -1.765989300961E-01  2.043085280880E-01 -9.732169191806E-02
H7 -1.765989300961E-01  2.956914719120E-01  4.026783080819E-01
H8  1.765989300961E-01 -2.043085280880E-01  9.732169191806E-02
C9  9.024864619146E-02 -3.919522272426E-01  4.053805927938E-01
C10 -9.024864619146E-02  1.080477727574E-01  9.461940720616E-02
C11 -9.024864619146E-02  3.919522272426E-01 -4.053805927938E-01
C12  9.024864619146E-02 -1.080477727574E-01 -9.461940720616E-02
H13  5.045352577050E-02 -3.134020700375E-01  4.784841377224E-01
H14 -5.045352577050E-02  1.865979299625E-01  2.151586227761E-02
H15 -5.045352577050E-02  3.134020700375E-01 -4.784841377224E-01
H16  5.045352577050E-02 -1.865979299625E-01 -2.151586227761E-02
C17  7.006726947240E-02  4.963687510916E-01  2.421222081356E-01
C18 -7.006726947240E-02 -3.631248908415E-03  2.578777918644E-01
C19 -7.006726947240E-02 -4.963687510916E-01 -2.421222081356E-01
C20  7.006726947240E-02  3.631248908415E-03 -2.578777918644E-01
H21  1.541518035590E-02  4.947044295118E-01  1.848657911788E-01
H22 -1.541518035590E-02 -5.295570488192E-03  3.151342088212E-01
H23 -1.541518035590E-02 -4.947044295118E-01 -1.848657911788E-01
H24  1.541518035590E-02  5.295570488192E-03 -3.151342088212E-01
C25  1.227919436756E-01  3.835609933219E-01  1.583863460526E-01
C26 -1.227919436756E-01 -1.164390066781E-01  3.416136539474E-01
C27 -1.227919436756E-01 -3.835609933219E-01 -1.583863460526E-01
C28  1.227919436756E-01  1.164390066781E-01 -3.416136539474E-01
H29  1.072687523387E-01  2.827497387027E-01  4.872371871954E-02
H30 -1.072687523387E-01 -2.172502612973E-01  4.512762812805E-01
H31 -1.072687523387E-01 -2.827497387027E-01 -4.872371871954E-02
H32  1.072687523387E-01  2.172502612973E-01 -4.512762812805E-01
C33  1.949798066986E-01  3.864231968849E-01  2.343515089299E-01
C34 -1.949798066986E-01 -1.135768031151E-01  2.656484910701E-01
C35 -1.949798066986E-01 -3.864231968849E-01 -2.343515089299E-01
C36  1.949798066986E-01  1.135768031151E-01 -2.656484910701E-01
H37  2.317418550687E-01  2.875021777508E-01  1.812408063476E-01
H38 -2.317418550687E-01 -2.124978222492E-01  3.187591936524E-01
H39 -2.317418550687E-01 -2.875021777508E-01 -1.812408063476E-01
H40  2.317418550687E-01  2.124978222492E-01 -3.187591936524E-01
C41  2.163747095544E-01  4.986422715753E-01  3.982844079349E-01
C42 -2.163747095544E-01 -1.357728424676E-03  1.017155920651E-01
C43 -2.163747095544E-01 -4.986422715753E-01 -3.982844079349E-01
C44  2.163747095544E-01  1.357728424675E-03 -1.017155920651E-01
C45  2.935162148316E-01 -4.967053019564E-01  4.786619972684E-01
C46 -2.935162148316E-01  3.294698043565E-03  2.133800273158E-02
C47 -2.935162148316E-01  4.967053019564E-01 -4.786619972684E-01
C48  2.935162148316E-01 -3.294698043565E-03 -2.133800273158E-02
C49  3.089240421255E-01 -4.350218169081E-01 -3.135188719954E-01
C50 -3.089240421255E-01  6.497818309191E-02 -1.864811280046E-01
C51 -3.089240421255E-01  4.350218169081E-01  3.135188719954E-01
C52  3.089240421255E-01 -6.497818309191E-02  1.864811280046E-01
H53  2.650023206916E-01 -4.152879285115E-01 -2.097702924019E-01
H54 -2.650023206916E-01  8.471207148854E-02 -2.902297075981E-01
H55 -2.650023206916E-01  4.152879285115E-01  2.097702924019E-01
H56  2.650023206916E-01 -8.471207148854E-02  2.902297075981E-01
C57  3.793593144677E-01 -4.196625847942E-01 -2.387609160229E-01
C58 -3.793593144677E-01  8.033741520583E-02 -2.612390839771E-01
C59 -3.793593144677E-01  4.196625847942E-01  2.387609160229E-01
C60  3.793593144677E-01 -8.033741520583E-02  2.612390839771E-01
H61  3.889028723113E-01 -3.758001631960E-01 -8.457783846742E-02
H62 -3.889028723113E-01  1.241998368040E-01 -4.154221615326E-01
H63 -3.889028723113E-01  3.758001631960E-01  8.457783846742E-02
H64  3.889028723113E-01 -1.241998368040E-01  4.154221615326E-01
C65  4.409919869371E-01 -4.579246430553E-01 -3.674880610431E-01
C66 -4.409919869371E-01  4.207535694466E-02 -1.325119389569E-01
C67 -4.409919869371E-01  4.579246430553E-01  3.674880610431E-01
C68  4.409919869371E-01 -4.207535694466E-02  1.325119389569E-01
C69  4.265619030190E-01  4.787033620215E-01  4.240436739550E-01
C70 -4.265619030190E-01 -2.129663797850E-02  7.595632604498E-02
C71 -4.265619030190E-01 -4.787033620215E-01 -4.240436739550E-01
C72  4.265619030190E-01  2.129663797850E-02 -7.595632604498E-02
C73  3.519661059370E-01  4.554660426544E-01  3.560476950265E-01
C74 -3.519661059370E-01 -4.453395734564E-02  1.439523049735E-01
C75 -3.519661059370E-01 -4.554660426544E-01 -3.560476950265E-01
C76  3.519661059370E-01  4.453395734564E-02 -1.439523049735E-01
H77  3.425648739329E-01  4.152477374553E-01  1.999596257870E-01
H78 -3.425648739329E-01 -8.475226254474E-02  3.000403742130E-01
H79 -3.425648739329E-01 -4.152477374553E-01 -1.999596257870E-01
H80  3.425648739329E-01  8.475226254474E-02 -3.000403742130E-01
C81 -4.863213581113E-01 -4.364519661183E-01 -2.971344476487E-01
C82  4.863213581113E-01  6.354803388167E-02 -2.028655523513E-01
C83  4.863213581113E-01  4.364519661183E-01  2.971344476487E-01
C84 -4.863213581113E-01 -6.354803388167E-02  2.028655523513E-01
H85 -4.765353029969E-01 -3.925038195591E-01 -1.428790716017E-01
H86  4.765353029969E-01  1.074961804409E-01 -3.571209283983E-01
H87  4.765353029969E-01  3.925038195591E-01  1.428790716017E-01
H88 -4.765353029969E-01 -1.074961804409E-01  3.571209283983E-01


#===END

data_OPT_STEP_8

_symmetry_space_group_name_H-M 'P 1'
_cell_length_a     18.13876645
_cell_length_b      7.67048845
_cell_length_c      6.43454183
_cell_angle_alpha   90.000000
_cell_angle_beta   90.846764
_cell_angle_gamma   90.000000

loop_
_atom_site_label
_atom_site_fract_x
_atom_site_fract_y
_atom_site_fract_z
C1  1.630512918411E-01 -3.898069572557E-01  4.811433969353E-01
C2 -1.630512918411E-01  1.101930427443E-01  1.885660306468E-02
C3 -1.630512918411E-01  3.898069572557E-01 -4.811433969353E-01
C4  1.630512918411E-01 -1.101930427443E-01 -1.885660306468E-02
H5  1.771299796599E-01 -2.972114322234E-01 -4.001983939122E-01
H6 -1.771299796599E-01  2.027885677766E-01 -9.980160608781E-02
H7 -1.771299796599E-01  2.972114322234E-01  4.001983939122E-01
H8  1.771299796599E-01 -2.027885677766E-01  9.980160608781E-02
C9  9.056737040029E-02 -3.946440231320E-01  4.078692452334E-01
C10 -9.056737040029E-02  1.053559768680E-01  9.213075476663E-02
C11 -9.056737040029E-02  3.946440231320E-01 -4.078692452334E-01
C12  9.056737040029E-02 -1.053559768680E-01 -9.213075476663E-02
H13  5.066966484722E-02 -3.120586224086E-01  4.795082600830E-01
H14 -5.066966484722E-02  1.879413775914E-01  2.049173991704E-02
H15 -5.066966484722E-02  3.120586224086E-01 -4.795082600830E-01
H16  5.066966484722E-02 -1.879413775914E-01 -2.049173991704E-02
C17  7.018293605872E-02  4.934330888886E-01  2.466977663061E-01
C18 -7.018293605872E-02 -6.566911111390E-03  2.533022336939E-01
C19 -7.018293605872E-02 -4.934330888886E-01 -2.466977663061E-01
C20  7.018293605872E-02  6.566911111390E-03 -2.533022336939E-01
H21  1.480288006517E-02  4.926795071004E-01  1.873455698656E-01
H22 -1.480288006517E-02 -7.320492899579E-03  3.126544301344E-01
H23 -1.480288006517E-02 -4.926795071004E-01 -1.873455698656E-01
H24  1.480288006517E-02  7.320492899578E-03 -3.126544301344E-01
C25  1.233032100299E-01  3.855957495551E-01  1.604323303724E-01
C26 -1.233032100299E-01 -1.144042504449E-01  3.395676696276E-01
C27 -1.233032100299E-01 -3.855957495551E-01 -1.604323303724E-01
C28  1.233032100299E-01  1.144042504449E-01 -3.395676696276E-01
H29  1.093771156848E-01  3.003039378365E-01  3.584519756138E-02
H30 -1.093771156848E-01 -1.996960621635E-01  4.641548024386E-01
H31 -1.093771156848E-01 -3.003039378365E-01 -3.584519756138E-02
H32  1.093771156848E-01  1.996960621635E-01 -4.641548024386E-01
C33  1.946049071750E-01  3.808054415502E-01  2.430297560911E-01
C34 -1.946049071750E-01 -1.191945584498E-01  2.569702439089E-01
C35 -1.946049071750E-01 -3.808054415502E-01 -2.430297560911E-01
C36  1.946049071750E-01  1.191945584498E-01 -2.569702439089E-01
H37  2.321868053817E-01  2.860453218131E-01  1.862528931665E-01
H38 -2.321868053817E-01 -2.139546781869E-01  3.137471068335E-01
H39 -2.321868053817E-01 -2.860453218131E-01 -1.862528931665E-01
H40  2.321868053817E-01  2.139546781869E-01 -3.137471068335E-01
C41  2.167382998860E-01  4.983658749235E-01  3.998214615379E-01
C42 -2.167382998860E-01 -1.634125076542E-03  1.001785384621E-01
C43 -2.167382998860E-01 -4.983658749235E-01 -3.998214615379E-01
C44  2.167382998860E-01  1.634125076542E-03 -1.001785384621E-01
C45  2.938763369262E-01 -4.950690950151E-01  4.779389811831E-01
C46 -2.938763369262E-01  4.930904984926E-03  2.206101881692E-02
C47 -2.938763369262E-01  4.950690950151E-01 -4.779389811831E-01
C48  2.938763369262E-01 -4.930904984926E-03 -2.206101881692E-02
C49  3.091914728613E-01 -4.404642802315E-01 -3.130555796934E-01
C50 -3.091914728613E-01  5.953571976847E-02 -1.869444203066E-01
C51 -3.091914728613E-01  4.404642802315E-01  3.130555796934E-01
C52  3.091914728613E-01 -5.953571976847E-02  1.869444203066E-01
H53  2.646124133400E-01 -4.156249978042E-01 -2.105377360201E-01
H54 -2.646124133400E-01  8.437500219576E-02 -2.894622639799E-01
H55 -2.646124133400E-01  4.156249978042E-01  2.105377360201E-01
H56  2.646124133400E-01 -8.437500219576E-02  2.894622639799E-01
C57  3.796216824339E-01 -4.197906636092E-01 -2.410584488589E-01
C58 -3.796216824339E-01  8.020933639080E-02 -2.589415511411E-01
C59 -3.796216824339E-01  4.197906636092E-01  2.410584488589E-01
C60  3.796216824339E-01 -8.020933639080E-02  2.589415511411E-01
H61  3.894744508482E-01 -3.737850074749E-01 -8.607936262061E-02
H62 -3.894744508482E-01  1.262149925251E-01 -4.139206373794E-01
H63 -3.894744508482E-01  3.737850074749E-01  8.607936262061E-02
H64  3.894744508482E-01 -1.262149925251E-01  4.139206373794E-01
C65  4.411345418526E-01 -4.604636950272E-01 -3.675725019245E-01
C66 -4.411345418526E-01  3.953630497275E-02 -1.324274980755E-01
C67 -4.411345418526E-01  4.604636950272E-01  3.675725019245E-01
C68  4.411345418526E-01 -3.953630497275E-02  1.324274980755E-01
C69  4.266211953690E-01  4.729472550290E-01  4.270648265129E-01
C70 -4.266211953690E-01 -2.705274497105E-02  7.293517348709E-02
C71 -4.266211953690E-01 -4.729472550290E-01 -4.270648265129E-01
C72  4.266211953690E-01  2.705274497105E-02 -7.293517348709E-02
C73  3.522252810610E-01  4.624335645944E-01  3.537615252976E-01
C74 -3.522252810610E-01 -3.756643540556E-02  1.462384747024E-01
C75 -3.522252810610E-01 -4.624335645944E-01 -3.537615252976E-01
C76  3.522252810610E-01  3.756643540556E-02 -1.462384747024E-01
H77  3.426944092991E-01  4.233017738557E-01  1.955088721354E-01
H78 -3.426944092991E-01 -7.669822614427E-02  3.044911278646E-01
H79 -3.426944092991E-01 -4.233017738557E-01 -1.955088721354E-01
H80  3.426944092991E-01  7.669822614426E-02 -3.044911278646E-01
C81 -4.862706840102E-01 -4.349729059389E-01 -2.995462391478E-01
C82  4.862706840102E-01  6.502709406108E-02 -2.004537608522E-01
C83  4.862706840102E-01  4.349729059389E-01  2.995462391478E-01
C84 -4.862706840102E-01 -6.502709406108E-02  2.004537608522E-01
H85 -4.763742849449E-01 -3.880564803846E-01 -1.448786785530E-01
H86  4.763742849449E-01  1.119435196154E-01 -3.551213214470E-01
H87  4.763742849449E-01  3.880564803846E-01  1.448786785530E-01
H88 -4.763742849449E-01 -1.119435196154E-01  3.551213214470E-01


#===END

data_OPT_STEP_9

_symmetry_space_group_name_H-M 'P 1'
_cell_length_a     18.14845735
_cell_length_b      7.72104998
_cell_length_c      6.47539846
_cell_angle_alpha   90.000000
_cell_angle_beta   90.859978
_cell_angle_gamma   90.000000

loop_
_atom_site_label
_atom_site_fract_x
_atom_site_fract_y
_atom_site_fract_z
C1  1.634325281886E-01 -3.901799730771E-01  4.803180964163E-01
C2 -1.634325281886E-01  1.098200269229E-01  1.968190358367E-02
C3 -1.634325281886E-01  3.901799730771E-01 -4.803180964163E-01
C4  1.634325281886E-01 -1.098200269229E-01 -1.968190358367E-02
H5  1.770724913214E-01 -3.048429158209E-01 -3.942199763387E-01
H6 -1.770724913214E-01  1.951570841791E-01 -1.057800236613E-01
H7 -1.770724913214E-01  3.048429158209E-01  3.942199763387E-01
H8  1.770724913214E-01 -1.951570841791E-01  1.057800236613E-01
C9  9.081839667296E-02 -3.954581207337E-01  4.086729084576E-01
C10 -9.081839667296E-02  1.045418792663E-01  9.132709154243E-02
C11 -9.081839667296E-02  3.954581207337E-01 -4.086729084576E-01
C12  9.081839667296E-02 -1.045418792663E-01 -9.132709154243E-02
H13  5.096153009077E-02 -3.099619459352E-01  4.785387816203E-01
H14 -5.096153009077E-02  1.900380540648E-01  2.146121837971E-02
H15 -5.096153009077E-02  3.099619459352E-01 -4.785387816203E-01
H16  5.096153009077E-02 -1.900380540648E-01 -2.146121837971E-02
C17  7.016456202134E-02  4.924308927000E-01  2.498233142986E-01
C18 -7.016456202134E-02 -7.569107300026E-03  2.501766857014E-01
C19 -7.016456202134E-02 -4.924308927000E-01 -2.498233142986E-01
C20  7.016456202134E-02  7.569107300026E-03 -2.501766857014E-01
H21  1.432002810412E-02  4.921025847556E-01  1.895635053740E-01
H22 -1.432002810412E-02 -7.897415244409E-03  3.104364946260E-01
H23 -1.432002810412E-02 -4.921025847556E-01 -1.895635053740E-01
H24  1.432002810412E-02  7.897415244409E-03 -3.104364946260E-01
C25  1.228126191764E-01  3.825873865244E-01  1.668947564020E-01
C26 -1.228126191764E-01 -1.174126134756E-01  3.331052435980E-01
C27 -1.228126191764E-01 -3.825873865244E-01 -1.668947564020E-01
C28  1.228126191764E-01  1.174126134756E-01 -3.331052435980E-01
H29  1.088241553335E-01  2.991459396100E-01  4.070398678537E-02
H30 -1.088241553335E-01 -2.008540603900E-01  4.592960132146E-01
H31 -1.088241553335E-01 -2.991459396100E-01 -4.070398678537E-02
H32  1.088241553335E-01  2.008540603900E-01 -4.592960132146E-01
C33  1.952668181885E-01  3.883623464019E-01  2.388627001508E-01
C34 -1.952668181885E-01 -1.116376535981E-01  2.611372998492E-01
C35 -1.952668181885E-01 -3.883623464019E-01 -2.388627001508E-01
C36  1.952668181885E-01  1.116376535981E-01 -2.611372998492E-01
H37  2.340874125931E-01  3.016752965655E-01  1.748517659223E-01
H38 -2.340874125931E-01 -1.983247034345E-01  3.251482340777E-01
H39 -2.340874125931E-01 -3.016752965655E-01 -1.748517659223E-01
H40  2.340874125931E-01  1.983247034345E-01 -3.251482340777E-01
C41  2.171466513658E-01 -4.991646859180E-01  3.975994727526E-01
C42 -2.171466513658E-01  8.353140819608E-04  1.024005272474E-01
C43 -2.171466513658E-01  4.991646859180E-01 -3.975994727526E-01
C44  2.171466513658E-01 -8.353140819610E-04 -1.024005272474E-01
C45  2.939204346221E-01 -4.971759766723E-01  4.779259608152E-01
C46 -2.939204346221E-01  2.824023327717E-03  2.207403918480E-02
C47 -2.939204346221E-01  4.971759766723E-01 -4.779259608152E-01
C48  2.939204346221E-01 -2.824023327717E-03 -2.207403918480E-02
C49  3.090819488786E-01 -4.444410896739E-01 -3.136424122858E-01
C50 -3.090819488786E-01  5.555891032606E-02 -1.863575877142E-01
C51 -3.090819488786E-01  4.444410896739E-01  3.136424122858E-01
C52  3.090819488786E-01 -5.555891032606E-02  1.863575877142E-01
H53  2.640177272478E-01 -4.088833536660E-01 -2.155206913971E-01
H54 -2.640177272478E-01  9.111664633399E-02 -2.844793086029E-01
H55 -2.640177272478E-01  4.088833536660E-01  2.155206913971E-01
H56  2.640177272478E-01 -9.111664633399E-02  2.844793086029E-01
C57  3.794533462919E-01 -4.251694586614E-01 -2.412733937168E-01
C58 -3.794533462919E-01  7.483054133862E-02 -2.587266062832E-01
C59 -3.794533462919E-01  4.251694586614E-01  2.412733937168E-01
C60  3.794533462919E-01 -7.483054133862E-02  2.587266062832E-01
H61  3.894502561280E-01 -3.781075480128E-01 -8.608178898251E-02
H62 -3.894502561280E-01  1.218924519872E-01 -4.139182110175E-01
H63 -3.894502561280E-01  3.781075480128E-01  8.608178898251E-02
H64  3.894502561280E-01 -1.218924519872E-01  4.139182110175E-01
C65  4.410407338078E-01 -4.601741244430E-01 -3.688736339000E-01
C66 -4.410407338078E-01  3.982587555702E-02 -1.311263661000E-01
C67 -4.410407338078E-01  4.601741244430E-01  3.688736339000E-01
C68  4.410407338078E-01 -3.982587555702E-02  1.311263661000E-01
C69  4.267148036630E-01  4.791320203151E-01  4.243919864963E-01
C70 -4.267148036630E-01 -2.086797968491E-02  7.560801350375E-02
C71 -4.267148036630E-01 -4.791320203151E-01 -4.243919864963E-01
C72  4.267148036630E-01  2.086797968491E-02 -7.560801350375E-02
C73  3.523767384095E-01  4.636170995359E-01  3.536634546490E-01
C74 -3.523767384095E-01 -3.638290046408E-02  1.463365453510E-01
C75 -3.523767384095E-01 -4.636170995359E-01 -3.536634546490E-01
C76  3.523767384095E-01  3.638290046408E-02 -1.463365453510E-01
H77  3.429859937473E-01  4.237209771319E-01  1.952189677159E-01
H78 -3.429859937473E-01 -7.627902286815E-02  3.047810322841E-01
H79 -3.429859937473E-01 -4.237209771319E-01 -1.952189677159E-01
H80  3.429859937473E-01  7.627902286815E-02 -3.047810322841E-01
C81 -4.863801672827E-01 -4.400354999615E-01 -2.985614785768E-01
C82  4.863801672827E-01  5.996450003850E-02 -2.014385214232E-01
C83  4.863801672827E-01  4.400354999615E-01  2.985614785768E-01
C84 -4.863801672827E-01 -5.996450003850E-02  2.014385214232E-01
H85 -4.764303436266E-01 -3.883958923083E-01 -1.454097186869E-01
H86  4.764303436266E-01  1.116041076917E-01 -3.545902813131E-01
H87  4.764303436266E-01  3.883958923083E-01  1.454097186869E-01
H88 -4.764303436266E-01 -1.116041076917E-01  3.545902813131E-01


#===END

data_OPT_STEP_10

_symmetry_space_group_name_H-M 'P 1'
_cell_length_a     18.14245652
_cell_length_b      7.82742297
_cell_length_c      6.49366215
_cell_angle_alpha   90.000000
_cell_angle_beta   90.738124
_cell_angle_gamma   90.000000

loop_
_atom_site_label
_atom_site_fract_x
_atom_site_fract_y
_atom_site_fract_z
C1  1.625615584444E-01 -3.921322097292E-01  4.839219146037E-01
C2 -1.625615584444E-01  1.078677902708E-01  1.607808539635E-02
C3 -1.625615584444E-01  3.921322097292E-01 -4.839219146037E-01
C4  1.625615584444E-01 -1.078677902708E-01 -1.607808539635E-02
H5  1.765485610785E-01 -3.032192690478E-01 -3.944789971949E-01
H6 -1.765485610785E-01  1.967807309522E-01 -1.055210028051E-01
H7 -1.765485610785E-01  3.032192690478E-01  3.944789971949E-01
H8  1.765485610785E-01 -1.967807309522E-01  1.055210028051E-01
C9  9.047153213242E-02 -3.945865711379E-01  4.086208248684E-01
C10 -9.047153213242E-02  1.054134288621E-01  9.137917513160E-02
C11 -9.047153213242E-02  3.945865711379E-01 -4.086208248684E-01
C12  9.047153213242E-02 -1.054134288621E-01 -9.137917513160E-02
H13  5.025316176979E-02 -3.085726913784E-01  4.762017182689E-01
H14 -5.025316176979E-02  1.914273086216E-01  2.379828173106E-02
H15 -5.025316176979E-02  3.085726913784E-01 -4.762017182689E-01
H16  5.025316176979E-02 -1.914273086216E-01 -2.379828173106E-02
C17  7.052753344286E-02  4.953667078847E-01  2.496317722508E-01
C18 -7.052753344286E-02 -4.633292115330E-03  2.503682277492E-01
C19 -7.052753344286E-02 -4.953667078847E-01 -2.496317722508E-01
C20  7.052753344286E-02  4.633292115330E-03 -2.503682277492E-01
H21  1.427611747595E-02  4.927329889034E-01  1.906223386180E-01
H22 -1.427611747595E-02 -7.267011096636E-03  3.093776613820E-01
H23 -1.427611747595E-02 -4.927329889034E-01 -1.906223386180E-01
H24  1.427611747595E-02  7.267011096636E-03 -3.093776613820E-01
C25  1.235579688979E-01  3.879444478081E-01  1.672552254224E-01
C26 -1.235579688979E-01 -1.120555521919E-01  3.327447745776E-01
C27 -1.235579688979E-01 -3.879444478081E-01 -1.672552254224E-01
C28  1.235579688979E-01  1.120555521919E-01 -3.327447745776E-01
H29  1.091243464641E-01  2.993954576050E-01  4.576279466263E-02
H30 -1.091243464641E-01 -2.006045423950E-01  4.542372053374E-01
H31 -1.091243464641E-01 -2.993954576050E-01 -4.576279466263E-02
H32  1.091243464641E-01  2.006045423950E-01 -4.542372053374E-01
C33  1.955594848928E-01  3.912560655675E-01  2.425101743282E-01
C34 -1.955594848928E-01 -1.087439344325E-01  2.574898256718E-01
C35 -1.955594848928E-01 -3.912560655675E-01 -2.425101743282E-01
C36  1.955594848928E-01  1.087439344325E-01 -2.574898256718E-01
H37  2.348331231050E-01  3.024665175646E-01  1.814619845595E-01
H38 -2.348331231050E-01 -1.975334824354E-01  3.185380154405E-01
H39 -2.348331231050E-01 -3.024665175646E-01 -1.814619845595E-01
H40  2.348331231050E-01  1.975334824354E-01 -3.185380154405E-01
C41  2.166227543153E-01 -4.996471479415E-01  4.027771631642E-01
C42 -2.166227543153E-01  3.528520585287E-04  9.722283683584E-02
C43 -2.166227543153E-01  4.996471479415E-01 -4.027771631642E-01
C44  2.166227543153E-01 -3.528520585288E-04 -9.722283683584E-02
C45  2.938553073099E-01 -4.925183068448E-01  4.797848878214E-01
C46 -2.938553073099E-01  7.481693155157E-03  2.021511217864E-02
C47 -2.938553073099E-01  4.925183068448E-01 -4.797848878214E-01
C48  2.938553073099E-01 -7.481693155157E-03 -2.021511217864E-02
C49  3.093583409222E-01 -4.386177739929E-01 -3.133831293385E-01
C50 -3.093583409222E-01  6.138222600710E-02 -1.866168706615E-01
C51 -3.093583409222E-01  4.386177739929E-01  3.133831293385E-01
C52  3.093583409222E-01 -6.138222600710E-02  1.866168706615E-01
H53  2.640672618373E-01 -4.088330508030E-01 -2.124205356534E-01
H54 -2.640672618373E-01  9.116694919704E-02 -2.875794643466E-01
H55 -2.640672618373E-01  4.088330508030E-01  2.124205356534E-01
H56  2.640672618373E-01 -9.116694919704E-02  2.875794643466E-01
C57  3.798101102231E-01 -4.236582179253E-01 -2.406474888469E-01
C58 -3.798101102231E-01  7.634178207474E-02 -2.593525111531E-01
C59 -3.798101102231E-01  4.236582179253E-01  2.406474888469E-01
C60  3.798101102231E-01 -7.634178207474E-02  2.593525111531E-01
H61  3.901310153269E-01 -3.780002197098E-01 -8.486547126311E-02
H62 -3.901310153269E-01  1.219997802902E-01 -4.151345287369E-01
H63 -3.901310153269E-01  3.780002197098E-01  8.486547126311E-02
H64  3.901310153269E-01 -1.219997802902E-01  4.151345287369E-01
C65  4.412267030670E-01 -4.621803512215E-01 -3.672675135910E-01
C66 -4.412267030670E-01  3.781964877846E-02 -1.327324864090E-01
C67 -4.412267030670E-01  4.621803512215E-01  3.672675135910E-01
C68  4.412267030670E-01 -3.781964877846E-02  1.327324864090E-01
C69  4.265822851682E-01  4.799620640092E-01  4.258922433353E-01
C70 -4.265822851682E-01 -2.003793599075E-02  7.410775666474E-02
C71 -4.265822851682E-01 -4.799620640092E-01 -4.258922433353E-01
C72  4.265822851682E-01  2.003793599075E-02 -7.410775666474E-02
C73  3.521138715362E-01  4.661963401998E-01  3.562029659481E-01
C74 -3.521138715362E-01 -3.380365980020E-02  1.437970340519E-01
C75 -3.521138715362E-01 -4.661963401998E-01 -3.562029659481E-01
C76  3.521138715362E-01  3.380365980020E-02 -1.437970340519E-01
H77  3.425138247028E-01  4.273457921227E-01  1.974930940307E-01
H78 -3.425138247028E-01 -7.265420787726E-02  3.025069059693E-01
H79 -3.425138247028E-01 -4.273457921227E-01 -1.974930940307E-01
H80  3.425138247028E-01  7.265420787726E-02 -3.025069059693E-01
C81 -4.860341225227E-01 -4.437402654577E-01 -2.981591266737E-01
C82  4.860341225227E-01  5.625973454230E-02 -2.018408733263E-01
C83  4.860341225227E-01  4.437402654577E-01  2.981591266737E-01
C84 -4.860341225227E-01 -5.625973454230E-02  2.018408733263E-01
H85 -4.756538728059E-01 -3.962223440950E-01 -1.431527698820E-01
H86  4.756538728059E-01  1.037776559050E-01 -3.568472301180E-01
H87  4.756538728059E-01  3.962223440950E-01  1.431527698820E-01
H88 -4.756538728059E-01 -1.037776559050E-01  3.568472301180E-01


#===END

data_OPT_STEP_11

_symmetry_space_group_name_H-M 'P 1'
_cell_length_a     18.14817385
_cell_length_b      7.92935170
_cell_length_c      6.47952233
_cell_angle_alpha   90.000000
_cell_angle_beta   90.614904
_cell_angle_gamma   90.000000

loop_
_atom_site_label
_atom_site_fract_x
_atom_site_fract_y
_atom_site_fract_z
C1  1.635671408750E-01 -3.864209814159E-01  4.776062035117E-01
C2 -1.635671408750E-01  1.135790185841E-01  2.239379648834E-02
C3 -1.635671408750E-01  3.864209814159E-01 -4.776062035117E-01
C4  1.635671408750E-01 -1.135790185841E-01 -2.239379648834E-02
H5  1.783228489135E-01 -2.928859485863E-01 -4.059126419919E-01
H6 -1.783228489135E-01  2.071140514137E-01 -9.408735800810E-02
H7 -1.783228489135E-01  2.928859485863E-01  4.059126419919E-01
H8  1.783228489135E-01 -2.071140514137E-01  9.408735800810E-02
C9  9.130013551168E-02 -3.907246986513E-01  4.046402315820E-01
C10 -9.130013551168E-02  1.092753013487E-01  9.535976841797E-02
C11 -9.130013551168E-02  3.907246986513E-01 -4.046402315820E-01
C12  9.130013551168E-02 -1.092753013487E-01 -9.535976841797E-02
H13  5.101139450695E-02 -3.061734664099E-01  4.725535304479E-01
H14 -5.101139450695E-02  1.938265335901E-01  2.744646955209E-02
H15 -5.101139450695E-02  3.061734664099E-01 -4.725535304479E-01
H16  5.101139450695E-02 -1.938265335901E-01 -2.744646955209E-02
C17  7.085512746268E-02  4.964927959376E-01  2.492156546140E-01
C18 -7.085512746268E-02 -3.507204062381E-03  2.507843453860E-01
C19 -7.085512746268E-02 -4.964927959376E-01 -2.492156546140E-01
C20  7.085512746268E-02  3.507204062381E-03 -2.507843453860E-01
H21  1.448238761181E-02  4.934828398245E-01  1.914706277090E-01
H22 -1.448238761181E-02 -6.517160175475E-03  3.085293722910E-01
H23 -1.448238761181E-02 -4.934828398245E-01 -1.914706277090E-01
H24  1.448238761181E-02  6.517160175475E-03 -3.085293722910E-01
C25  1.231681835987E-01  3.848137996739E-01  1.707194009240E-01
C26 -1.231681835987E-01 -1.151862003261E-01  3.292805990760E-01
C27 -1.231681835987E-01 -3.848137996739E-01 -1.707194009240E-01
C28  1.231681835987E-01  1.151862003261E-01 -3.292805990760E-01
H29  1.080552549295E-01  2.924157502830E-01  5.314824612647E-02
H30 -1.080552549295E-01 -2.075842497170E-01  4.468517538735E-01
H31 -1.080552549295E-01 -2.924157502830E-01 -5.314824612647E-02
H32  1.080552549295E-01  2.075842497170E-01 -4.468517538735E-01
C33  1.950479026303E-01  3.865781907529E-01  2.466103232937E-01
C34 -1.950479026303E-01 -1.134218092471E-01  2.533896767063E-01
C35 -1.950479026303E-01 -3.865781907529E-01 -2.466103232937E-01
C36  1.950479026303E-01  1.134218092471E-01 -2.533896767063E-01
H37  2.340202897426E-01  2.942994009705E-01  1.885886921192E-01
H38 -2.340202897426E-01 -2.057005990295E-01  3.114113078808E-01
H39 -2.340202897426E-01 -2.942994009705E-01 -1.885886921192E-01
H40  2.340202897426E-01  2.057005990295E-01 -3.114113078808E-01
C41  2.170336174959E-01 -4.974220231882E-01  3.999991580499E-01
C42 -2.170336174959E-01  2.577976811802E-03  1.000008419501E-01
C43 -2.170336174959E-01  4.974220231882E-01 -3.999991580499E-01
C44  2.170336174959E-01 -2.577976811802E-03 -1.000008419501E-01
C45  2.939785162605E-01 -4.935976104593E-01  4.794077107902E-01
C46 -2.939785162605E-01  6.402389540652E-03  2.059228920975E-02
C47 -2.939785162605E-01  4.935976104593E-01 -4.794077107902E-01
C48  2.939785162605E-01 -6.402389540652E-03 -2.059228920975E-02
C49  3.092406731243E-01 -4.378261400511E-01 -3.142677010408E-01
C50 -3.092406731243E-01  6.217385994894E-02 -1.857322989592E-01
C51 -3.092406731243E-01  4.378261400511E-01  3.142677010408E-01
C52  3.092406731243E-01 -6.217385994894E-02  1.857322989592E-01
H53  2.637724700414E-01 -4.117532564875E-01 -2.119876655239E-01
H54 -2.637724700414E-01  8.824674351250E-02 -2.880123344761E-01
H55 -2.637724700414E-01  4.117532564875E-01  2.119876655239E-01
H56  2.637724700414E-01 -8.824674351250E-02  2.880123344761E-01
C57  3.795669862913E-01 -4.212560483309E-01 -2.418041485348E-01
C58 -3.795669862913E-01  7.874395166914E-02 -2.581958514652E-01
C59 -3.795669862913E-01  4.212560483309E-01  2.418041485348E-01
C60  3.795669862913E-01 -7.874395166914E-02  2.581958514652E-01
H61  3.897424096384E-01 -3.776650138551E-01 -8.511239709338E-02
H62 -3.897424096384E-01  1.223349861449E-01 -4.148876029066E-01
H63 -3.897424096384E-01  3.776650138551E-01  8.511239709338E-02
H64  3.897424096384E-01 -1.223349861449E-01  4.148876029066E-01
C65  4.410924003318E-01 -4.586083384430E-01 -3.688505225154E-01
C66 -4.410924003318E-01  4.139166155695E-02 -1.311494774846E-01
C67 -4.410924003318E-01  4.586083384430E-01  3.688505225154E-01
C68  4.410924003318E-01 -4.139166155695E-02  1.311494774846E-01
C69  4.267301450474E-01  4.786181939528E-01  4.265874982798E-01
C70 -4.267301450474E-01 -2.138180604717E-02  7.341250172021E-02
C71 -4.267301450474E-01 -4.786181939528E-01 -4.265874982798E-01
C72  4.267301450474E-01  2.138180604717E-02 -7.341250172021E-02
C73  3.523913661658E-01  4.639433295211E-01  3.568369790699E-01
C74 -3.523913661658E-01 -3.605667047894E-02  1.431630209301E-01
C75 -3.523913661658E-01 -4.639433295211E-01 -3.568369790699E-01
C76  3.523913661658E-01  3.605667047894E-02 -1.431630209301E-01
H77  3.430263401053E-01  4.260609538628E-01  1.976673690076E-01
H78 -3.430263401053E-01 -7.393904613725E-02  3.023326309924E-01
H79 -3.430263401053E-01 -4.260609538628E-01 -1.976673690076E-01
H80  3.430263401053E-01  7.393904613725E-02 -3.023326309924E-01
C81 -4.862925766927E-01 -4.371966303505E-01 -3.012420196406E-01
C82  4.862925766927E-01  6.280336964954E-02 -1.987579803594E-01
C83  4.862925766927E-01  4.371966303505E-01  3.012420196406E-01
C84 -4.862925766927E-01 -6.280336964954E-02  1.987579803594E-01
H85 -4.759242706850E-01 -3.900985643651E-01 -1.460825190857E-01
H86  4.759242706850E-01  1.099014356349E-01 -3.539174809143E-01
H87  4.759242706850E-01  3.900985643651E-01  1.460825190857E-01
H88 -4.759242706850E-01 -1.099014356349E-01  3.539174809143E-01


#===END

data_OPT_STEP_12

_symmetry_space_group_name_H-M 'P 1'
_cell_length_a     18.14621500
_cell_length_b      7.84917280
_cell_length_c      6.48864763
_cell_angle_alpha   90.000000
_cell_angle_beta   90.720475
_cell_angle_gamma   90.000000

loop_
_atom_site_label
_atom_site_fract_x
_atom_site_fract_y
_atom_site_fract_z
C1  1.628583716379E-01 -3.908020231471E-01  4.824983412000E-01
C2 -1.628583716379E-01  1.091979768529E-01  1.750165879998E-02
C3 -1.628583716379E-01  3.908020231471E-01 -4.824983412000E-01
C4  1.628583716379E-01 -1.091979768529E-01 -1.750165879998E-02
H5  1.770694780304E-01 -3.004746409993E-01 -3.972742442153E-01
H6 -1.770694780304E-01  1.995253590007E-01 -1.027257557847E-01
H7 -1.770694780304E-01  3.004746409993E-01  3.972742442153E-01
H8  1.770694780304E-01 -1.995253590007E-01  1.027257557847E-01
C9  9.073412055621E-02 -3.939306251575E-01  4.078461395737E-01
C10 -9.073412055621E-02  1.060693748425E-01  9.215386042629E-02
C11 -9.073412055621E-02  3.939306251575E-01 -4.078461395737E-01
C12  9.073412055621E-02 -1.060693748425E-01 -9.215386042629E-02
H13  5.044922665591E-02 -3.084949122099E-01  4.754216813872E-01
H14 -5.044922665591E-02  1.915050877901E-01  2.457831861284E-02
H15 -5.044922665591E-02  3.084949122099E-01 -4.754216813872E-01
H16  5.044922665591E-02 -1.915050877901E-01 -2.457831861284E-02
C17  7.070679843156E-02  4.955920373356E-01  2.493264569276E-01
C18 -7.070679843156E-02 -4.407962664412E-03  2.506735430724E-01
C19 -7.070679843156E-02 -4.955920373356E-01 -2.493264569276E-01
C20  7.070679843156E-02  4.407962664412E-03 -2.506735430724E-01
H21  1.439816527914E-02  4.927487997172E-01  1.908763520272E-01
H22 -1.439816527914E-02 -7.251200282849E-03  3.091236479728E-01
H23 -1.439816527914E-02 -4.927487997172E-01 -1.908763520272E-01
H24  1.439816527914E-02  7.251200282849E-03 -3.091236479728E-01
C25  1.235278814078E-01  3.869782699391E-01  1.677760807943E-01
C26 -1.235278814078E-01 -1.130217300609E-01  3.322239192057E-01
C27 -1.235278814078E-01 -3.869782699391E-01 -1.677760807943E-01
C28  1.235278814078E-01  1.130217300609E-01 -3.322239192057E-01
H29  1.088887463426E-01  2.973445506809E-01  4.717308968375E-02
H30 -1.088887463426E-01 -2.026554493191E-01  4.528269103162E-01
H31 -1.088887463426E-01 -2.973445506809E-01 -4.717308968375E-02
H32  1.088887463426E-01  2.026554493191E-01 -4.528269103162E-01
C33  1.954642216816E-01  3.895983004574E-01  2.434743719001E-01
C34 -1.954642216816E-01 -1.104016995427E-01  2.565256280999E-01
C35 -1.954642216816E-01 -3.895983004573E-01 -2.434743719001E-01
C36  1.954642216816E-01  1.104016995427E-01 -2.565256280999E-01
H37  2.347784203668E-01  3.004521374569E-01  1.824892580704E-01
H38 -2.347784203668E-01 -1.995478625431E-01  3.175107419296E-01
H39 -2.347784203668E-01 -3.004521374569E-01 -1.824892580704E-01
H40  2.347784203668E-01  1.995478625431E-01 -3.175107419296E-01
C41  2.168201114547E-01 -4.988023294924E-01  4.016505103986E-01
C42 -2.168201114547E-01  1.197670507582E-03  9.834948960144E-02
C43 -2.168201114547E-01  4.988023294924E-01 -4.016505103986E-01
C44  2.168201114547E-01 -1.197670507582E-03 -9.834948960144E-02
C45  2.939163027537E-01 -4.932911020475E-01  4.798727755274E-01
C46 -2.939163027537E-01  6.708897952522E-03  2.012722447261E-02
C47 -2.939163027537E-01  4.932911020475E-01 -4.798727755274E-01
C48  2.939163027537E-01 -6.708897952523E-03 -2.012722447261E-02
C49  3.093743330064E-01 -4.382780335708E-01 -3.136037157952E-01
C50 -3.093743330064E-01  6.172196642916E-02 -1.863962842048E-01
C51 -3.093743330064E-01  4.382780335708E-01  3.136037157952E-01
C52  3.093743330064E-01 -6.172196642916E-02  1.863962842048E-01
H53  2.640309096963E-01 -4.103254228458E-01 -2.119357182636E-01
H54 -2.640309096963E-01  8.967457715415E-02 -2.880642817364E-01
H55 -2.640309096963E-01  4.103254228458E-01  2.119357182636E-01
H56  2.640309096963E-01 -8.967457715415E-02  2.880642817364E-01
C57  3.797869773702E-01 -4.224565948775E-01 -2.410834316629E-01
C58 -3.797869773702E-01  7.754340512246E-02 -2.589165683371E-01
C59 -3.797869773702E-01  4.224565948775E-01  2.410834316629E-01
C60  3.797869773702E-01 -7.754340512246E-02  2.589165683371E-01
H61  3.900880886704E-01 -3.776765609498E-01 -8.490998148222E-02
H62 -3.900880886704E-01  1.223234390502E-01 -4.150900185178E-01
H63 -3.900880886704E-01  3.776765609498E-01  8.490998148222E-02
H64  3.900880886704E-01 -1.223234390502E-01  4.150900185178E-01
C65  4.412105429011E-01 -4.605966828845E-01 -3.678948647104E-01
C66 -4.412105429011E-01  3.940331711545E-02 -1.321051352896E-01
C67 -4.412105429011E-01  4.605966828845E-01  3.678948647104E-01
C68  4.412105429011E-01 -3.940331711545E-02  1.321051352896E-01
C69  4.266378400702E-01  4.794257169064E-01  4.262086005697E-01
C70 -4.266378400702E-01 -2.057428309359E-02  7.379139943029E-02
C71 -4.266378400702E-01 -4.794257169064E-01 -4.262086005697E-01
C72  4.266378400702E-01  2.057428309359E-02 -7.379139943029E-02
C73  3.522167033484E-01  4.652634713832E-01  3.565206938478E-01
C74 -3.522167033484E-01 -3.473652861685E-02  1.434793061522E-01
C75 -3.522167033484E-01 -4.652634713832E-01 -3.565206938478E-01
C76  3.522167033484E-01  3.473652861685E-02 -1.434793061522E-01
H77  3.426809906163E-01  4.267157812794E-01  1.976378604022E-01
H78 -3.426809906163E-01 -7.328421872059E-02  3.023621395978E-01
H79 -3.426809906163E-01 -4.267157812794E-01 -1.976378604022E-01
H80  3.426809906163E-01  7.328421872059E-02 -3.023621395978E-01
C81 -4.860927058796E-01 -4.409575161342E-01 -2.994395808113E-01
C82  4.860927058796E-01  5.904248386577E-02 -2.005604191887E-01
C83  4.860927058796E-01  4.409575161342E-01  2.994395808113E-01
C84 -4.860927058796E-01 -5.904248386577E-02  2.005604191887E-01
H85 -4.756568507942E-01 -3.948917327273E-01 -1.437531830466E-01
H86  4.756568507942E-01  1.051082672727E-01 -3.562468169534E-01
H87  4.756568507942E-01  3.948917327273E-01  1.437531830466E-01
H88 -4.756568507942E-01 -1.051082672727E-01  3.562468169534E-01


#===END

data_OPT_STEP_13

_symmetry_space_group_name_H-M 'P 1'
_cell_length_a     18.14787768
_cell_length_b      7.87827823
_cell_length_c      6.49187185
_cell_angle_alpha   90.000000
_cell_angle_beta   90.714632
_cell_angle_gamma   90.000000

loop_
_atom_site_label
_atom_site_fract_x
_atom_site_fract_y
_atom_site_fract_z
C1  1.630885097983E-01 -3.900761243184E-01  4.814007431112E-01
C2 -1.630885097983E-01  1.099238756816E-01  1.859925688885E-02
C3 -1.630885097983E-01  3.900761243184E-01 -4.814007431112E-01
C4  1.630885097983E-01 -1.099238756816E-01 -1.859925688885E-02
H5  1.773492949482E-01 -2.998606347409E-01 -3.986497196005E-01
H6 -1.773492949482E-01  2.001393652591E-01 -1.013502803995E-01
H7 -1.773492949482E-01  2.998606347409E-01  3.986497196005E-01
H8  1.773492949482E-01 -2.001393652591E-01  1.013502803995E-01
C9  9.105202641202E-02 -3.929598475775E-01  4.063780036163E-01
C10 -9.105202641202E-02  1.070401524225E-01  9.362199638366E-02
C11 -9.105202641202E-02  3.929598475775E-01 -4.063780036163E-01
C12  9.105202641202E-02 -1.070401524225E-01 -9.362199638366E-02
H13  5.067132496019E-02 -3.086643686042E-01  4.738658873254E-01
H14 -5.067132496019E-02  1.913356313958E-01  2.613411267462E-02
H15 -5.067132496019E-02  3.086643686042E-01 -4.738658873254E-01
H16  5.067132496019E-02 -1.913356313958E-01 -2.613411267462E-02
C17  7.086004688619E-02  4.952754681724E-01  2.494069394723E-01
C18 -7.086004688619E-02 -4.724531827582E-03  2.505930605277E-01
C19 -7.086004688619E-02 -4.952754681724E-01 -2.494069394723E-01
C20  7.086004688619E-02  4.724531827582E-03 -2.505930605277E-01
H21  1.456586205016E-02  4.924088885538E-01  1.914536572896E-01
H22 -1.456586205016E-02 -7.591111446215E-03  3.085463427104E-01
H23 -1.456586205016E-02 -4.924088885538E-01 -1.914536572896E-01
H24  1.456586205016E-02  7.591111446215E-03 -3.085463427104E-01
C25  1.236198343062E-01  3.866578079581E-01  1.680117127552E-01
C26 -1.236198343062E-01 -1.133421920419E-01  3.319882872448E-01
C27 -1.236198343062E-01 -3.866578079581E-01 -1.680117127552E-01
C28  1.236198343062E-01  1.133421920419E-01 -3.319882872448E-01
H29  1.089826664358E-01  2.977295395005E-01  4.699305295412E-02
H30 -1.089826664358E-01 -2.022704604995E-01  4.530069470459E-01
H31 -1.089826664358E-01 -2.977295395005E-01 -4.699305295412E-02
H32  1.089826664358E-01  2.022704604995E-01 -4.530069470459E-01
C33  1.955621621485E-01  3.894007249390E-01  2.435928219447E-01
C34 -1.955621621485E-01 -1.105992750610E-01  2.564071780553E-01
C35 -1.955621621485E-01 -3.894007249390E-01 -2.435928219447E-01
C36  1.955621621485E-01  1.105992750610E-01 -2.564071780553E-01
H37  2.349704006154E-01  3.004071469656E-01  1.825573338040E-01
H38 -2.349704006154E-01 -1.995928530344E-01  3.174426661960E-01
H39 -2.349704006154E-01 -3.004071469656E-01 -1.825573338040E-01
H40  2.349704006154E-01  1.995928530344E-01 -3.174426661960E-01
C41  2.169118350617E-01 -4.988262524644E-01  4.015022330122E-01
C42 -2.169118350617E-01  1.173747535552E-03  9.849776698777E-02
C43 -2.169118350617E-01  4.988262524644E-01 -4.015022330122E-01
C44  2.169118350617E-01 -1.173747535552E-03 -9.849776698777E-02
C45  2.939876049942E-01 -4.930418728339E-01  4.796125224254E-01
C46 -2.939876049942E-01  6.958127166084E-03  2.038747757461E-02
C47 -2.939876049942E-01  4.930418728339E-01 -4.796125224254E-01
C48  2.939876049942E-01 -6.958127166084E-03 -2.038747757461E-02
C49  3.093850857110E-01 -4.392152216404E-01 -3.135410972073E-01
C50 -3.093850857110E-01  6.078477835964E-02 -1.864589027927E-01
C51 -3.093850857110E-01  4.392152216404E-01  3.135410972073E-01
C52  3.093850857110E-01 -6.078477835964E-02  1.864589027927E-01
H53  2.640272662841E-01 -4.122632275143E-01 -2.117589345235E-01
H54 -2.640272662841E-01  8.773677248572E-02 -2.882410654765E-01
H55 -2.640272662841E-01  4.122632275143E-01  2.117589345235E-01
H56  2.640272662841E-01 -8.773677248572E-02  2.882410654765E-01
C57  3.797645336477E-01 -4.219318771433E-01 -2.415658940003E-01
C58 -3.797645336477E-01  7.806812285672E-02 -2.584341059997E-01
C59 -3.797645336477E-01  4.219318771433E-01  2.415658940003E-01
C60  3.797645336477E-01 -7.806812285672E-02  2.584341059997E-01
H61  3.899994300732E-01 -3.777110683181E-01 -8.552889620270E-02
H62 -3.899994300732E-01  1.222889316819E-01 -4.144711037973E-01
H63 -3.899994300732E-01  3.777110683181E-01  8.552889620270E-02
H64  3.899994300732E-01 -1.222889316819E-01  4.144711037973E-01
C65  4.412071298181E-01 -4.603802647786E-01 -3.680659272986E-01
C66 -4.412071298181E-01  3.961973522144E-02 -1.319340727014E-01
C67 -4.412071298181E-01  4.603802647786E-01  3.680659272986E-01
C68  4.412071298181E-01 -3.961973522144E-02  1.319340727014E-01
C69  4.266848065421E-01  4.794810214262E-01  4.262750801654E-01
C70 -4.266848065421E-01 -2.051897857385E-02  7.372491983459E-02
C71 -4.266848065421E-01 -4.794810214262E-01 -4.262750801654E-01
C72  4.266848065421E-01  2.051897857385E-02 -7.372491983459E-02
C73  3.522936793887E-01  4.653111685578E-01  3.565227941259E-01
C74 -3.522936793887E-01 -3.468883144218E-02  1.434772058741E-01
C75 -3.522936793887E-01 -4.653111685578E-01 -3.565227941259E-01
C76  3.522936793887E-01  3.468883144218E-02 -1.434772058741E-01
H77  3.427881863638E-01  4.264922985091E-01  1.981241042782E-01
H78 -3.427881863638E-01 -7.350770149089E-02  3.018758957218E-01
H79 -3.427881863638E-01 -4.264922985091E-01 -1.981241042782E-01
H80  3.427881863638E-01  7.350770149089E-02 -3.018758957218E-01
C81 -4.861250529038E-01 -4.403795488409E-01 -2.998839179239E-01
C82  4.861250529038E-01  5.962045115910E-02 -2.001160820761E-01
C83  4.861250529038E-01  4.403795488409E-01  2.998839179239E-01
C84 -4.861250529038E-01 -5.962045115910E-02  2.001160820761E-01
H85 -4.756536826463E-01 -3.931955223232E-01 -1.451355804382E-01
H86  4.756536826463E-01  1.068044776768E-01 -3.548644195618E-01
H87  4.756536826463E-01  3.931955223232E-01  1.451355804382E-01
H88 -4.756536826463E-01 -1.068044776768E-01  3.548644195618E-01


#===END

data_OPT_STEP_14

_symmetry_space_group_name_H-M 'P 1'
_cell_length_a     18.14749891
_cell_length_b      7.89722268
_cell_length_c      6.50223048
_cell_angle_alpha   90.000000
_cell_angle_beta   90.713458
_cell_angle_gamma   90.000000

loop_
_atom_site_label
_atom_site_fract_x
_atom_site_fract_y
_atom_site_fract_z
C1  1.631571011010E-01 -3.910168113935E-01  4.813413186319E-01
C2 -1.631571011010E-01  1.089831886065E-01  1.865868136807E-02
C3 -1.631571011010E-01  3.910168113935E-01 -4.813413186319E-01
C4  1.631571011010E-01 -1.089831886065E-01 -1.865868136807E-02
H5  1.774617635589E-01 -3.011535370095E-01 -3.988280173079E-01
H6 -1.774617635589E-01  1.988464629905E-01 -1.011719826921E-01
H7 -1.774617635589E-01  3.011535370095E-01  3.988280173079E-01
H8  1.774617635589E-01 -1.988464629905E-01  1.011719826921E-01
C9  9.109457031070E-02 -3.946710596360E-01  4.069040755540E-01
C10 -9.109457031070E-02  1.053289403640E-01  9.309592444597E-02
C11 -9.109457031070E-02  3.946710596360E-01 -4.069040755540E-01
C12  9.109457031070E-02 -1.053289403640E-01 -9.309592444597E-02
H13  5.063553900873E-02 -3.110269623545E-01  4.736143718507E-01
H14 -5.063553900873E-02  1.889730376455E-01  2.638562814931E-02
H15 -5.063553900873E-02  3.110269623545E-01 -4.736143718507E-01
H16  5.063553900873E-02 -1.889730376455E-01 -2.638562814931E-02
C17  7.097483132443E-02  4.942715328830E-01  2.497711043862E-01
C18 -7.097483132443E-02 -5.728467117025E-03  2.502288956138E-01
C19 -7.097483132443E-02 -4.942715328830E-01 -2.497711043862E-01
C20  7.097483132443E-02  5.728467117025E-03 -2.502288956138E-01
H21  1.469537721757E-02  4.912194038502E-01  1.923631161458E-01
H22 -1.469537721757E-02 -8.780596149779E-03  3.076368838542E-01
H23 -1.469537721757E-02 -4.912194038502E-01 -1.923631161458E-01
H24  1.469537721757E-02  8.780596149779E-03 -3.076368838542E-01
C25  1.238259795291E-01  3.869263476804E-01  1.674979094830E-01
C26 -1.238259795291E-01 -1.130736523196E-01  3.325020905170E-01
C27 -1.238259795291E-01 -3.869263476804E-01 -1.674979094830E-01
C28  1.238259795291E-01  1.130736523196E-01 -3.325020905170E-01
H29  1.092480470587E-01  2.992569050207E-01  4.557821168397E-02
H30 -1.092480470587E-01 -2.007430949793E-01  4.544217883160E-01
H31 -1.092480470587E-01 -2.992569050207E-01 -4.557821168397E-02
H32  1.092480470587E-01  2.007430949793E-01 -4.544217883160E-01
C33  1.957298141755E-01  3.893514138437E-01  2.433201669642E-01
C34 -1.957298141755E-01 -1.106485861563E-01  2.566798330358E-01
C35 -1.957298141755E-01 -3.893514138437E-01 -2.433201669642E-01
C36  1.957298141755E-01  1.106485861563E-01 -2.566798330358E-01
H37  2.353444980428E-01  3.010190817228E-01  1.817653781761E-01
H38 -2.353444980428E-01 -1.989809182772E-01  3.182346218239E-01
H39 -2.353444980428E-01 -3.010190817228E-01 -1.817653781761E-01
H40  2.353444980428E-01  1.989809182772E-01 -3.182346218239E-01
C41  2.170037299051E-01 -4.991439248064E-01  4.012080377512E-01
C42 -2.170037299051E-01  8.560751935525E-04  9.879196224881E-02
C43 -2.170037299051E-01  4.991439248064E-01 -4.012080377512E-01
C44  2.170037299051E-01 -8.560751935527E-04 -9.879196224881E-02
C45  2.940252079884E-01 -4.932604292975E-01  4.793770927402E-01
C46 -2.940252079884E-01  6.739570702522E-03  2.062290725981E-02
C47 -2.940252079884E-01  4.932604292975E-01 -4.793770927402E-01
C48  2.940252079884E-01 -6.739570702522E-03 -2.062290725981E-02
C49  3.093689136367E-01 -4.383821215431E-01 -3.145273275945E-01
C50 -3.093689136367E-01  6.161787845692E-02 -1.854726724055E-01
C51 -3.093689136367E-01  4.383821215431E-01  3.145273275945E-01
C52  3.093689136367E-01 -6.161787845692E-02  1.854726724055E-01
H53  2.639813496897E-01 -4.103376526563E-01 -2.136281259937E-01
H54 -2.639813496897E-01  8.966234734368E-02 -2.863718740063E-01
H55 -2.639813496897E-01  4.103376526563E-01  2.136281259937E-01
H56  2.639813496897E-01 -8.966234734368E-02  2.863718740063E-01
C57  3.797101506804E-01 -4.216080304610E-01 -2.422821155271E-01
C58 -3.797101506804E-01  7.839196953903E-02 -2.577178844729E-01
C59 -3.797101506804E-01  4.216080304610E-01  2.422821155271E-01
C60  3.797101506804E-01 -7.839196953903E-02  2.577178844729E-01
H61  3.898749407560E-01 -3.779589957181E-01 -8.653210943297E-02
H62 -3.898749407560E-01  1.220410042819E-01 -4.134678905670E-01
H63 -3.898749407560E-01  3.779589957181E-01  8.653210943297E-02
H64  3.898749407560E-01 -1.220410042819E-01  4.134678905670E-01
C65  4.411860117524E-01 -4.597080383497E-01 -3.685925364835E-01
C66 -4.411860117524E-01  4.029196165034E-02 -1.314074635165E-01
C67 -4.411860117524E-01  4.597080383497E-01  3.685925364835E-01
C68  4.411860117524E-01 -4.029196165034E-02  1.314074635165E-01
C69  4.267336977572E-01  4.790783660344E-01  4.265546154826E-01
C70 -4.267336977572E-01 -2.092163396557E-02  7.344538451745E-02
C71 -4.267336977572E-01 -4.790783660344E-01 -4.265546154826E-01
C72  4.267336977572E-01  2.092163396557E-02 -7.344538451745E-02
C73  3.523731086871E-01  4.651758892297E-01  3.565953254118E-01
C74 -3.523731086871E-01 -3.482411077028E-02  1.434046745882E-01
C75 -3.523731086871E-01 -4.651758892297E-01 -3.565953254118E-01
C76  3.523731086871E-01  3.482411077028E-02 -1.434046745882E-01
H77  3.429034096316E-01  4.257626342272E-01  1.989446140914E-01
H78 -3.429034096316E-01 -7.423736577284E-02  3.010553859086E-01
H79 -3.429034096316E-01 -4.257626342272E-01 -1.989446140914E-01
H80  3.429034096316E-01  7.423736577284E-02 -3.010553859086E-01
C81 -4.861632978502E-01 -4.401029795315E-01 -3.003212353539E-01
C82  4.861632978502E-01  5.989702046850E-02 -1.996787646461E-01
C83  4.861632978502E-01  4.401029795315E-01  3.003212353539E-01
C84 -4.861632978502E-01 -5.989702046850E-02  1.996787646461E-01
H85 -4.756311946994E-01 -3.932047849238E-01 -1.459956538049E-01
H86  4.756311946994E-01  1.067952150762E-01 -3.540043461951E-01
H87  4.756311946994E-01  3.932047849238E-01  1.459956538049E-01
H88 -4.756311946994E-01 -1.067952150762E-01  3.540043461951E-01


#===END

data_OPT_STEP_15

_symmetry_space_group_name_H-M 'P 1'
_cell_length_a     18.14938310
_cell_length_b      7.91522854
_cell_length_c      6.51689226
_cell_angle_alpha   90.000000
_cell_angle_beta   90.699788
_cell_angle_gamma   90.000000

loop_
_atom_site_label
_atom_site_fract_x
_atom_site_fract_y
_atom_site_fract_z
C1  1.630752584874E-01 -3.918567363474E-01  4.812240359544E-01
C2 -1.630752584874E-01  1.081432636526E-01  1.877596404560E-02
C3 -1.630752584874E-01  3.918567363474E-01 -4.812240359544E-01
C4  1.630752584874E-01 -1.081432636526E-01 -1.877596404560E-02
H5  1.773642486448E-01 -3.024335499620E-01 -3.990289674914E-01
H6 -1.773642486448E-01  1.975664500380E-01 -1.009710325086E-01
H7 -1.773642486448E-01  3.024335499620E-01  3.990289674914E-01
H8  1.773642486448E-01 -1.975664500380E-01  1.009710325086E-01
C9  9.095820682799E-02 -3.962892518942E-01  4.075673764342E-01
C10 -9.095820682799E-02  1.037107481058E-01  9.243262356583E-02
C11 -9.095820682799E-02  3.962892518942E-01 -4.075673764342E-01
C12  9.095820682799E-02 -1.037107481058E-01 -9.243262356583E-02
H13  5.047189552653E-02 -3.126576581571E-01  4.734797512646E-01
H14 -5.047189552653E-02  1.873423418429E-01  2.652024873538E-02
H15 -5.047189552653E-02  3.126576581571E-01 -4.734797512646E-01
H16  5.047189552653E-02 -1.873423418429E-01 -2.652024873538E-02
C17  7.098792150251E-02  4.937377280859E-01  2.500767237786E-01
C18 -7.098792150251E-02 -6.262271914098E-03  2.499232762214E-01
C19 -7.098792150251E-02 -4.937377280859E-01 -2.500767237786E-01
C20  7.098792150251E-02  6.262271914098E-03 -2.499232762214E-01
H21  1.470605281268E-02  4.904457583645E-01  1.930168805262E-01
H22 -1.470605281268E-02 -9.554241635528E-03  3.069831194738E-01
H23 -1.470605281268E-02 -4.904457583645E-01 -1.930168805262E-01
H24  1.470605281268E-02  9.554241635528E-03 -3.069831194738E-01
C25  1.238853247070E-01  3.867744145115E-01  1.680012537154E-01
C26 -1.238853247070E-01 -1.132255854885E-01  3.319987462846E-01
C27 -1.238853247070E-01 -3.867744145115E-01 -1.680012537154E-01
C28  1.238853247070E-01  1.132255854885E-01 -3.319987462846E-01
H29  1.093136074337E-01  2.991950646062E-01  4.635340468257E-02
H30 -1.093136074337E-01 -2.008049353938E-01  4.536465953174E-01
H31 -1.093136074337E-01 -2.991950646062E-01 -4.635340468257E-02
H32  1.093136074337E-01  2.008049353938E-01 -4.536465953174E-01
C33  1.958141456940E-01  3.897057729406E-01  2.433262516310E-01
C34 -1.958141456940E-01 -1.102942270594E-01  2.566737483690E-01
C35 -1.958141456940E-01 -3.897057729406E-01 -2.433262516310E-01
C36  1.958141456940E-01  1.102942270594E-01 -2.566737483690E-01
H37  2.355964653330E-01  3.021201416948E-01  1.813665928804E-01
H38 -2.355964653330E-01 -1.978798583052E-01  3.186334071196E-01
H39 -2.355964653330E-01 -3.021201416948E-01 -1.813665928804E-01
H40  2.355964653330E-01  1.978798583052E-01 -3.186334071196E-01
C41  2.170780616810E-01 -4.985375113776E-01  4.003417271965E-01
C42 -2.170780616810E-01  1.462488622362E-03  9.965827280347E-02
C43 -2.170780616810E-01  4.985375113776E-01 -4.003417271965E-01
C44  2.170780616810E-01 -1.462488622362E-03 -9.965827280347E-02
C45  2.940638535903E-01 -4.925819639724E-01  4.785027326476E-01
C46 -2.940638535903E-01  7.418036027585E-03  2.149726735238E-02
C47 -2.940638535903E-01  4.925819639724E-01 -4.785027326476E-01
C48  2.940638535903E-01 -7.418036027585E-03 -2.149726735238E-02
C49  3.092987580602E-01 -4.385077595241E-01 -3.155284155999E-01
C50 -3.092987580602E-01  6.149224047586E-02 -1.844715844001E-01
C51 -3.092987580602E-01  4.385077595241E-01  3.155284155999E-01
C52  3.092987580602E-01 -6.149224047586E-02  1.844715844001E-01
H53  2.638505070358E-01 -4.116035421138E-01 -2.145947108083E-01
H54 -2.638505070358E-01  8.839645788617E-02 -2.854052891917E-01
H55 -2.638505070358E-01  4.116035421138E-01  2.145947108083E-01
H56  2.638505070358E-01 -8.839645788617E-02  2.854052891917E-01
C57  3.795955449194E-01 -4.217064327511E-01 -2.432063838270E-01
C58 -3.795955449194E-01  7.829356724889E-02 -2.567936161730E-01
C59 -3.795955449194E-01  4.217064327511E-01  2.432063838270E-01
C60  3.795955449194E-01 -7.829356724889E-02  2.567936161730E-01
H61  3.896618408630E-01 -3.779568154219E-01 -8.790184413273E-02
H62 -3.896618408630E-01  1.220431845781E-01 -4.120981558673E-01
H63 -3.896618408630E-01  3.779568154219E-01  8.790184413273E-02
H64  3.896618408630E-01 -1.220431845781E-01  4.120981558673E-01
C65  4.411360463041E-01 -4.601215673007E-01 -3.688460492740E-01
C66 -4.411360463041E-01  3.987843269928E-02 -1.311539507260E-01
C67 -4.411360463041E-01  4.601215673007E-01  3.688460492740E-01
C68  4.411360463041E-01 -3.987843269928E-02  1.311539507260E-01
C69  4.267827054991E-01  4.796113915918E-01  4.263112276637E-01
C70 -4.267827054991E-01 -2.038860840815E-02  7.368877233627E-02
C71 -4.267827054991E-01 -4.796113915918E-01 -4.263112276637E-01
C72  4.267827054991E-01  2.038860840815E-02 -7.368877233627E-02
C73  3.524630946311E-01  4.658198556079E-01  3.562308752445E-01
C74 -3.524630946311E-01 -3.418014439210E-02  1.437691247555E-01
C75 -3.524630946311E-01 -4.658198556079E-01 -3.562308752445E-01
C76  3.524630946311E-01  3.418014439209E-02 -1.437691247555E-01
H77  3.430422496778E-01  4.258505798523E-01  1.992135317577E-01
H78 -3.430422496778E-01 -7.414942014767E-02  3.007864682423E-01
H79 -3.430422496778E-01 -4.258505798523E-01 -1.992135317577E-01
H80  3.430422496778E-01  7.414942014767E-02 -3.007864682423E-01
C81 -4.862505060489E-01 -4.402752055474E-01 -3.006703691174E-01
C82  4.862505060489E-01  5.972479445256E-02 -1.993296308826E-01
C83  4.862505060489E-01  4.402752055474E-01  3.006703691174E-01
C84 -4.862505060489E-01 -5.972479445256E-02  1.993296308826E-01
H85 -4.757288501963E-01 -3.933554214968E-01 -1.467795784683E-01
H86  4.757288501963E-01  1.066445785032E-01 -3.532204215317E-01
H87  4.757288501963E-01  3.933554214968E-01  1.467795784683E-01
H88 -4.757288501963E-01 -1.066445785032E-01  3.532204215317E-01


#===END

data_OPT_STEP_16

_symmetry_space_group_name_H-M 'P 1'
_cell_length_a     18.15090473
_cell_length_b      7.94432894
_cell_length_c      6.52404824
_cell_angle_alpha   90.000000
_cell_angle_beta   90.658201
_cell_angle_gamma   90.000000

loop_
_atom_site_label
_atom_site_fract_x
_atom_site_fract_y
_atom_site_fract_z
C1  1.630988518781E-01 -3.922294670818E-01  4.807337610752E-01
C2 -1.630988518781E-01  1.077705329182E-01  1.926623892480E-02
C3 -1.630988518781E-01  3.922294670818E-01 -4.807337610752E-01
C4  1.630988518781E-01 -1.077705329182E-01 -1.926623892480E-02
H5  1.774320571791E-01 -3.027549270133E-01 -4.000442418607E-01
H6 -1.774320571791E-01  1.972450729867E-01 -9.995575813933E-02
H7 -1.774320571791E-01  3.027549270133E-01  4.000442418607E-01
H8  1.774320571791E-01 -1.972450729867E-01  9.995575813933E-02
C9  9.100144410407E-02 -3.962988758474E-01  4.070787224634E-01
C10 -9.100144410407E-02  1.037011241526E-01  9.292127753662E-02
C11 -9.100144410407E-02  3.962988758474E-01 -4.070787224634E-01
C12  9.100144410407E-02 -1.037011241526E-01 -9.292127753662E-02
H13  5.051966574749E-02 -3.125472189455E-01  4.726658374079E-01
H14 -5.051966574749E-02  1.874527810545E-01  2.733416259208E-02
H15 -5.051966574749E-02  3.125472189455E-01 -4.726658374079E-01
H16  5.051966574749E-02 -1.874527810545E-01 -2.733416259208E-02
C17  7.099374716284E-02  4.934301421497E-01  2.504906682127E-01
C18 -7.099374716284E-02 -6.569857850286E-03  2.495093317873E-01
C19 -7.099374716284E-02 -4.934301421497E-01 -2.504906682127E-01
C20  7.099374716284E-02  6.569857850286E-03 -2.495093317873E-01
H21  1.467754527728E-02  4.900653279059E-01  1.936859525506E-01
H22 -1.467754527728E-02 -9.934672094150E-03  3.063140474494E-01
H23 -1.467754527728E-02 -4.900653279058E-01 -1.936859525506E-01
H24  1.467754527728E-02  9.934672094150E-03 -3.063140474494E-01
C25  1.238962082715E-01  3.864634354852E-01  1.688815498854E-01
C26 -1.238962082715E-01 -1.135365645148E-01  3.311184501146E-01
C27 -1.238962082715E-01 -3.864634354852E-01 -1.688815498854E-01
C28  1.238962082715E-01  1.135365645148E-01 -3.311184501146E-01
H29  1.093454182108E-01  2.990076290406E-01  4.750968930382E-02
H30 -1.093454182108E-01 -2.009923709594E-01  4.524903106962E-01
H31 -1.093454182108E-01 -2.990076290406E-01 -4.750968930382E-02
H32  1.093454182108E-01  2.009923709594E-01 -4.524903106962E-01
C33  1.958129110411E-01  3.894735456716E-01  2.439890721579E-01
C34 -1.958129110411E-01 -1.105264543284E-01  2.560109278421E-01
C35 -1.958129110411E-01 -3.894735456716E-01 -2.439890721579E-01
C36  1.958129110411E-01  1.105264543284E-01 -2.560109278421E-01
H37  2.356517777558E-01  3.022533149675E-01  1.819780113405E-01
H38 -2.356517777558E-01 -1.977466850325E-01  3.180219886595E-01
H39 -2.356517777558E-01 -3.022533149675E-01 -1.819780113405E-01
H40  2.356517777558E-01  1.977466850325E-01 -3.180219886595E-01
C41  2.170399122052E-01 -4.993570752756E-01  4.007723236300E-01
C42 -2.170399122052E-01  6.429247244400E-04  9.922767637003E-02
C43 -2.170399122052E-01  4.993570752756E-01 -4.007723236300E-01
C44  2.170399122052E-01 -6.429247244401E-04 -9.922767637003E-02
C45  2.940436993704E-01 -4.931336569424E-01  4.786639881523E-01
C46 -2.940436993704E-01  6.866343057624E-03  2.133601184765E-02
C47 -2.940436993704E-01  4.931336569424E-01 -4.786639881523E-01
C48  2.940436993704E-01 -6.866343057625E-03 -2.133601184765E-02
C49  3.092459160526E-01 -4.384448308868E-01 -3.159297129116E-01
C50 -3.092459160526E-01  6.155516911315E-02 -1.840702870884E-01
C51 -3.092459160526E-01  4.384448308868E-01  3.159297129116E-01
C52  3.092459160526E-01 -6.155516911315E-02  1.840702870884E-01
H53  2.637628409093E-01 -4.114107402207E-01 -2.151591801962E-01
H54 -2.637628409093E-01  8.858925977926E-02 -2.848408198038E-01
H55 -2.637628409093E-01  4.114107402207E-01  2.151591801962E-01
H56  2.637628409093E-01 -8.858925977926E-02  2.848408198038E-01
C57  3.795240829922E-01 -4.217223679485E-01 -2.436582066500E-01
C58 -3.795240829922E-01  7.827763205151E-02 -2.563417933500E-01
C59 -3.795240829922E-01  4.217223679485E-01  2.436582066500E-01
C60  3.795240829922E-01 -7.827763205151E-02  2.563417933500E-01
H61  3.895294915879E-01 -3.780757402554E-01 -8.844679737028E-02
H62 -3.895294915879E-01  1.219242597446E-01 -4.115532026297E-01
H63 -3.895294915879E-01  3.780757402554E-01  8.844679737028E-02
H64  3.895294915879E-01 -1.219242597446E-01  4.115532026297E-01
C65  4.410972849547E-01 -4.599323365315E-01 -3.691579311309E-01
C66 -4.410972849547E-01  4.006766346845E-02 -1.308420688691E-01
C67 -4.410972849547E-01  4.599323365315E-01  3.691579311309E-01
C68  4.410972849547E-01 -4.006766346845E-02  1.308420688691E-01
C69  4.267977068970E-01  4.798542605147E-01  4.263121407616E-01
C70 -4.267977068970E-01 -2.014573948532E-02  7.368785923842E-02
C71 -4.267977068970E-01 -4.798542605147E-01 -4.263121407616E-01
C72  4.267977068970E-01  2.014573948532E-02 -7.368785923842E-02
C73  3.524930378411E-01  4.655173506713E-01  3.565544949259E-01
C74 -3.524930378411E-01 -3.448264932870E-02  1.434455050741E-01
C75 -3.524930378411E-01 -4.655173506713E-01 -3.565544949259E-01
C76  3.524930378411E-01  3.448264932870E-02 -1.434455050741E-01
H77  3.431147362159E-01  4.256645396204E-01  1.995926826723E-01
H78 -3.431147362159E-01 -7.433546037960E-02  3.004073173277E-01
H79 -3.431147362159E-01 -4.256645396204E-01 -1.995926826723E-01
H80  3.431147362159E-01  7.433546037960E-02 -3.004073173277E-01
C81 -4.863021685924E-01 -4.403958839827E-01 -3.009219172802E-01
C82  4.863021685924E-01  5.960411601730E-02 -1.990780827198E-01
C83  4.863021685924E-01  4.403958839827E-01  3.009219172802E-01
C84 -4.863021685924E-01 -5.960411601730E-02  1.990780827198E-01
H85 -4.758022060818E-01 -3.938195799043E-01 -1.470271288655E-01
H86  4.758022060818E-01  1.061804200957E-01 -3.529728711345E-01
H87  4.758022060818E-01  3.938195799043E-01  1.470271288655E-01
H88 -4.758022060818E-01 -1.061804200957E-01  3.529728711345E-01


#===END

data_OPT_STEP_17

_symmetry_space_group_name_H-M 'P 1'
_cell_length_a     18.15479738
_cell_length_b      7.99873748
_cell_length_c      6.53537325
_cell_angle_alpha   90.000000
_cell_angle_beta   90.617415
_cell_angle_gamma   90.000000

loop_
_atom_site_label
_atom_site_fract_x
_atom_site_fract_y
_atom_site_fract_z
C1  1.631314146474E-01 -3.910497607420E-01  4.791888499308E-01
C2 -1.631314146474E-01  1.089502392580E-01  2.081115006924E-02
C3 -1.631314146474E-01  3.910497607420E-01 -4.791888499308E-01
C4  1.631314146474E-01 -1.089502392580E-01 -2.081115006924E-02
H5  1.774606724136E-01 -3.015237319689E-01 -4.024734520390E-01
H6 -1.774606724136E-01  1.984762680311E-01 -9.752654796096E-02
H7 -1.774606724136E-01  3.015237319689E-01  4.024734520390E-01
H8  1.774606724136E-01 -1.984762680311E-01  9.752654796096E-02
C9  9.104877244485E-02 -3.953332978269E-01  4.057655139095E-01
C10 -9.104877244485E-02  1.046667021731E-01  9.423448609054E-02
C11 -9.104877244485E-02  3.953332978269E-01 -4.057655139095E-01
C12  9.104877244485E-02 -1.046667021731E-01 -9.423448609054E-02
H13  5.054859675603E-02 -3.117499812336E-01  4.709215055870E-01
H14 -5.054859675603E-02  1.882500187664E-01  2.907849441295E-02
H15 -5.054859675603E-02  3.117499812336E-01 -4.709215055870E-01
H16  5.054859675603E-02 -1.882500187664E-01 -2.907849441295E-02
C17  7.093938976139E-02  4.931758455203E-01  2.513028002356E-01
C18 -7.093938976139E-02 -6.824154479726E-03  2.486971997644E-01
C19 -7.093938976139E-02 -4.931758455203E-01 -2.513028002356E-01
C20  7.093938976139E-02  6.824154479726E-03 -2.486971997644E-01
H21  1.460220721527E-02  4.896578884772E-01  1.947665241500E-01
H22 -1.460220721527E-02 -1.034211152283E-02  3.052334758500E-01
H23 -1.460220721527E-02 -4.896578884772E-01 -1.947665241500E-01
H24  1.460220721527E-02  1.034211152283E-02 -3.052334758500E-01
C25  1.238234968714E-01  3.861870585306E-01  1.708136750852E-01
C26 -1.238234968714E-01 -1.138129414694E-01  3.291863249148E-01
C27 -1.238234968714E-01 -3.861870585306E-01 -1.708136750852E-01
C28  1.238234968714E-01  1.138129414694E-01 -3.291863249148E-01
H29  1.091474282856E-01  2.971360815687E-01  5.164232492194E-02
H30 -1.091474282856E-01 -2.028639184313E-01  4.483576750781E-01
H31 -1.091474282856E-01 -2.971360815687E-01 -5.164232492194E-02
H32  1.091474282856E-01  2.028639184313E-01 -4.483576750781E-01
C33  1.958510496293E-01  3.908825045235E-01  2.444887804596E-01
C34 -1.958510496293E-01 -1.091174954765E-01  2.555112195404E-01
C35 -1.958510496293E-01 -3.908825045235E-01 -2.444887804596E-01
C36  1.958510496293E-01  1.091174954765E-01 -2.555112195404E-01
H37  2.355842439687E-01  3.028710962338E-01  1.839596416581E-01
H38 -2.355842439687E-01 -1.971289037662E-01  3.160403583419E-01
H39 -2.355842439687E-01 -3.028710962338E-01 -1.839596416581E-01
H40  2.355842439687E-01  1.971289037662E-01 -3.160403583419E-01
C41  2.171381610715E-01 -4.973795369585E-01  3.996210641280E-01
C42 -2.171381610715E-01  2.620463041511E-03  1.003789358720E-01
C43 -2.171381610715E-01  4.973795369585E-01 -3.996210641280E-01
C44  2.171381610715E-01 -2.620463041511E-03 -1.003789358720E-01
C45  2.941086910347E-01 -4.909234049214E-01  4.774230467386E-01
C46 -2.941086910347E-01  9.076595078561E-03  2.257695326139E-02
C47 -2.941086910347E-01  4.909234049214E-01 -4.774230467386E-01
C48  2.941086910347E-01 -9.076595078561E-03 -2.257695326139E-02
C49  3.092124790191E-01 -4.363547488069E-01 -3.176054604758E-01
C50 -3.092124790191E-01  6.364525119309E-02 -1.823945395242E-01
C51 -3.092124790191E-01  4.363547488069E-01  3.176054604758E-01
C52  3.092124790191E-01 -6.364525119310E-02  1.823945395242E-01
H53  2.636961461847E-01 -4.079233422451E-01 -2.176806817120E-01
H54 -2.636961461847E-01  9.207665775487E-02 -2.823193182880E-01
H55 -2.636961461847E-01  4.079233422451E-01  2.176806817120E-01
H56  2.636961461847E-01 -9.207665775487E-02  2.823193182880E-01
C57  3.794482456281E-01 -4.202851033836E-01 -2.451360624885E-01
C58 -3.794482456281E-01  7.971489661635E-02 -2.548639375115E-01
C59 -3.794482456281E-01  4.202851033836E-01  2.451360624885E-01
C60  3.794482456281E-01 -7.971489661635E-02  2.548639375115E-01
H61  3.893601663357E-01 -3.767413461814E-01 -9.015392967720E-02
H62 -3.893601663357E-01  1.232586538186E-01 -4.098460703228E-01
H63 -3.893601663357E-01  3.767413461814E-01  9.015392967720E-02
H64  3.893601663357E-01 -1.232586538186E-01  4.098460703228E-01
C65  4.410543389141E-01 -4.589921184511E-01 -3.700216636249E-01
C66 -4.410543389141E-01  4.100788154894E-02 -1.299783363751E-01
C67 -4.410543389141E-01  4.589921184511E-01  3.700216636249E-01
C68  4.410543389141E-01 -4.100788154894E-02  1.299783363751E-01
C69  4.268284013659E-01  4.800887221434E-01  4.263373040047E-01
C70 -4.268284013659E-01 -1.991127785663E-02  7.366269599534E-02
C71 -4.268284013659E-01 -4.800887221434E-01 -4.263373040047E-01
C72  4.268284013659E-01  1.991127785663E-02 -7.366269599534E-02
C73  3.525745404354E-01  4.668291603784E-01  3.561920933444E-01
C74 -3.525745404354E-01 -3.317083962164E-02  1.438079066556E-01
C75 -3.525745404354E-01 -4.668291603784E-01 -3.561920933444E-01
C76  3.525745404354E-01  3.317083962164E-02 -1.438079066556E-01
H77  3.432315860429E-01  4.272330674211E-01  1.993641744956E-01
H78 -3.432315860429E-01 -7.276693257891E-02  3.006358255044E-01
H79 -3.432315860429E-01 -4.272330674211E-01 -1.993641744956E-01
H80  3.432315860429E-01  7.276693257891E-02 -3.006358255044E-01
C81 -4.863710863196E-01 -4.408902762022E-01 -3.012302189748E-01
C82  4.863710863196E-01  5.910972379779E-02 -1.987697810252E-01
C83  4.863710863196E-01  4.408902762022E-01  3.012302189748E-01
C84 -4.863710863196E-01 -5.910972379779E-02  1.987697810252E-01
H85 -4.759347639442E-01 -3.943828241993E-01 -1.476098099239E-01
H86  4.759347639442E-01  1.056171758007E-01 -3.523901900761E-01
H87  4.759347639442E-01  3.943828241993E-01  1.476098099239E-01
H88 -4.759347639442E-01 -1.056171758007E-01  3.523901900761E-01


#===END

data_OPT_STEP_18

_symmetry_space_group_name_H-M 'P 1'
_cell_length_a     18.15023317
_cell_length_b      8.00694715
_cell_length_c      6.54195823
_cell_angle_alpha   90.000000
_cell_angle_beta   90.592731
_cell_angle_gamma   90.000000

loop_
_atom_site_label
_atom_site_fract_x
_atom_site_fract_y
_atom_site_fract_z
C1  1.631143582306E-01 -3.910000984085E-01  4.788036699938E-01
C2 -1.631143582306E-01  1.089999015915E-01  2.119633000616E-02
C3 -1.631143582306E-01  3.910000984085E-01 -4.788036699938E-01
C4  1.631143582306E-01 -1.089999015915E-01 -2.119633000616E-02
H5  1.774698547048E-01 -3.008573372031E-01 -4.036994622878E-01
H6 -1.774698547048E-01  1.991426627969E-01 -9.630053771218E-02
H7 -1.774698547048E-01  3.008573372031E-01  4.036994622878E-01
H8  1.774698547048E-01 -1.991426627969E-01  9.630053771218E-02
C9  9.101718629849E-02 -3.956731695761E-01  4.056138576152E-01
C10 -9.101718629849E-02  1.043268304239E-01  9.438614238476E-02
C11 -9.101718629849E-02  3.956731695761E-01 -4.056138576152E-01
C12  9.101718629849E-02 -1.043268304239E-01 -9.438614238476E-02
H13  5.046890014509E-02 -3.122507740804E-01  4.705582519392E-01
H14 -5.046890014509E-02  1.877492259196E-01  2.944174806075E-02
H15 -5.046890014509E-02  3.122507740804E-01 -4.705582519392E-01
H16  5.046890014509E-02 -1.877492259196E-01 -2.944174806075E-02
C17  7.097036684928E-02  4.930158363269E-01  2.513031238855E-01
C18 -7.097036684928E-02 -6.984163673119E-03  2.486968761145E-01
C19 -7.097036684928E-02 -4.930158363269E-01 -2.513031238855E-01
C20  7.097036684928E-02  6.984163673119E-03 -2.486968761145E-01
H21  1.461421438198E-02  4.893177945028E-01  1.950122328865E-01
H22 -1.461421438198E-02 -1.068220549723E-02  3.049877671135E-01
H23 -1.461421438198E-02 -4.893177945028E-01 -1.950122328865E-01
H24  1.461421438198E-02  1.068220549723E-02 -3.049877671135E-01
C25  1.239340458513E-01  3.865563856738E-01  1.706968012122E-01
C26 -1.239340458513E-01 -1.134436143262E-01  3.293031987878E-01
C27 -1.239340458513E-01 -3.865563856738E-01 -1.706968012122E-01
C28  1.239340458513E-01  1.134436143262E-01 -3.293031987878E-01
H29  1.093531896575E-01  2.981002270809E-01  5.125374662480E-02
H30 -1.093531896575E-01 -2.018997729191E-01  4.487462533752E-01
H31 -1.093531896575E-01 -2.981002270809E-01 -5.125374662480E-02
H32  1.093531896575E-01  2.018997729191E-01 -4.487462533752E-01
C33  1.958929747610E-01  3.907128495037E-01  2.448980386784E-01
C34 -1.958929747610E-01 -1.092871504963E-01  2.551019613216E-01
C35 -1.958929747610E-01 -3.907128495037E-01 -2.448980386784E-01
C36  1.958929747610E-01  1.092871504963E-01 -2.551019613216E-01
H37  2.356917687650E-01  3.031339899647E-01  1.842562817953E-01
H38 -2.356917687650E-01 -1.968660100353E-01  3.157437182047E-01
H39 -2.356917687650E-01 -3.031339899647E-01 -1.842562817953E-01
H40  2.356917687650E-01  1.968660100353E-01 -3.157437182047E-01
C41  2.171040088229E-01 -4.977807733937E-01  3.999835154442E-01
C42 -2.171040088229E-01  2.219226606293E-03  1.000164845558E-01
C43 -2.171040088229E-01  4.977807733937E-01 -3.999835154442E-01
C44  2.171040088229E-01 -2.219226606294E-03 -1.000164845558E-01
C45  2.940705573567E-01 -4.912238895697E-01  4.776766853333E-01
C46 -2.940705573567E-01  8.776110430253E-03  2.232331466673E-02
C47 -2.940705573567E-01  4.912238895697E-01 -4.776766853333E-01
C48  2.940705573567E-01 -8.776110430253E-03 -2.232331466673E-02
C49  3.091604225654E-01 -4.362915429500E-01 -3.177288088005E-01
C50 -3.091604225654E-01  6.370845704999E-02 -1.822711911995E-01
C51 -3.091604225654E-01  4.362915429500E-01  3.177288088005E-01
C52  3.091604225654E-01 -6.370845704999E-02  1.822711911995E-01
H53  2.636322811541E-01 -4.076881348296E-01 -2.179623679243E-01
H54 -2.636322811541E-01  9.231186517036E-02 -2.820376320757E-01
H55 -2.636322811541E-01  4.076881348296E-01  2.179623679243E-01
H56  2.636322811541E-01 -9.231186517036E-02  2.820376320757E-01
C57  3.794027233807E-01 -4.202735812952E-01 -2.453546101622E-01
C58 -3.794027233807E-01  7.972641870476E-02 -2.546453898378E-01
C59 -3.794027233807E-01  4.202735812952E-01  2.453546101622E-01
C60  3.794027233807E-01 -7.972641870476E-02  2.546453898378E-01
H61  3.892868283071E-01 -3.766600686650E-01 -9.058481296966E-02
H62 -3.892868283071E-01  1.233399313350E-01 -4.094151870303E-01
H63 -3.892868283071E-01  3.766600686650E-01  9.058481296966E-02
H64  3.892868283071E-01 -1.233399313350E-01  4.094151870303E-01
C65  4.410340990722E-01 -4.591516798123E-01 -3.700561333523E-01
C66 -4.410340990722E-01  4.084832018772E-02 -1.299438666477E-01
C67 -4.410340990722E-01  4.591516798123E-01  3.700561333523E-01
C68  4.410340990722E-01 -4.084832018772E-02  1.299438666477E-01
C69  4.268287039384E-01  4.804914323941E-01  4.262696011239E-01
C70 -4.268287039384E-01 -1.950856760591E-02  7.373039887612E-02
C71 -4.268287039384E-01 -4.804914323941E-01 -4.262696011239E-01
C72  4.268287039384E-01  1.950856760591E-02 -7.373039887612E-02
C73  3.525670185360E-01  4.668786082701E-01  3.563989780964E-01
C74 -3.525670185360E-01 -3.312139172994E-02  1.436010219036E-01
C75 -3.525670185360E-01 -4.668786082701E-01 -3.563989780964E-01
C76  3.525670185360E-01  3.312139172994E-02 -1.436010219036E-01
H77  3.432408415310E-01  4.271635055274E-01  1.997929674309E-01
H78 -3.432408415310E-01 -7.283649447265E-02  3.002070325691E-01
H79 -3.432408415310E-01 -4.271635055274E-01 -1.997929674309E-01
H80  3.432408415310E-01  7.283649447265E-02 -3.002070325691E-01
C81 -4.863938751998E-01 -4.407892810462E-01 -3.015032504472E-01
C82  4.863938751998E-01  5.921071895377E-02 -1.984967495528E-01
C83  4.863938751998E-01  4.407892810462E-01  3.015032504472E-01
C84 -4.863938751998E-01 -5.921071895377E-02  1.984967495528E-01
H85 -4.759808368081E-01 -3.938558581258E-01 -1.482702261403E-01
H86  4.759808368081E-01  1.061441418742E-01 -3.517297738597E-01
H87  4.759808368081E-01  3.938558581258E-01  1.482702261403E-01
H88 -4.759808368081E-01 -1.061441418742E-01  3.517297738597E-01


#===END

data_OPT_STEP_19

_symmetry_space_group_name_H-M 'P 1'
_cell_length_a     18.13543612
_cell_length_b      8.01163618
_cell_length_c      6.55068845
_cell_angle_alpha   90.000000
_cell_angle_beta   90.496016
_cell_angle_gamma   90.000000

loop_
_atom_site_label
_atom_site_fract_x
_atom_site_fract_y
_atom_site_fract_z
C1  1.628743071202E-01 -3.928080204035E-01  4.797394214155E-01
C2 -1.628743071202E-01  1.071919795965E-01  2.026057858445E-02
C3 -1.628743071202E-01  3.928080204035E-01 -4.797394214155E-01
C4  1.628743071202E-01 -1.071919795965E-01 -2.026057858445E-02
H5  1.770429373031E-01 -3.037257874525E-01 -4.020808265911E-01
H6 -1.770429373031E-01  1.962742125475E-01 -9.791917340892E-02
H7 -1.770429373031E-01  3.037257874525E-01  4.020808265911E-01
H8  1.770429373031E-01 -1.962742125475E-01  9.791917340892E-02
C9  9.087829775488E-02 -3.967509823387E-01  4.058205728648E-01
C10 -9.087829775488E-02  1.032490176613E-01  9.417942713520E-02
C11 -9.087829775488E-02  3.967509823387E-01 -4.058205728648E-01
C12  9.087829775488E-02 -1.032490176613E-01 -9.417942713520E-02
H13  5.024952513147E-02 -3.133950170921E-01  4.703701837294E-01
H14 -5.024952513147E-02  1.866049829079E-01  2.962981627055E-02
H15 -5.024952513147E-02  3.133950170921E-01 -4.703701837294E-01
H16  5.024952513147E-02 -1.866049829079E-01 -2.962981627055E-02
C17  7.097419842600E-02  4.924801347701E-01  2.513796057979E-01
C18 -7.097419842600E-02 -7.519865229887E-03  2.486203942021E-01
C19 -7.097419842600E-02 -4.924801347701E-01 -2.513796057979E-01
C20  7.097419842600E-02  7.519865229887E-03 -2.486203942021E-01
H21  1.459290655018E-02  4.886101677865E-01  1.954222334280E-01
H22 -1.459290655018E-02 -1.138983221349E-02  3.045777665720E-01
H23 -1.459290655018E-02 -4.886101677865E-01 -1.954222334280E-01
H24  1.459290655018E-02  1.138983221349E-02 -3.045777665720E-01
C25  1.239828575515E-01  3.856078331845E-01  1.714240568542E-01
C26 -1.239828575515E-01 -1.143921668155E-01  3.285759431458E-01
C27 -1.239828575515E-01 -3.856078331845E-01 -1.714240568542E-01
C28  1.239828575515E-01  1.143921668155E-01 -3.285759431458E-01
H29  1.095441002998E-01  2.979016078453E-01  5.161273222267E-02
H30 -1.095441002998E-01 -2.020983921547E-01  4.483872677773E-01
H31 -1.095441002998E-01 -2.979016078453E-01 -5.161273222267E-02
H32  1.095441002998E-01  2.020983921547E-01 -4.483872677773E-01
C33  1.958934612940E-01  3.892210948278E-01  2.460649510578E-01
C34 -1.958934612940E-01 -1.107789051722E-01  2.539350489422E-01
C35 -1.958934612940E-01 -3.892210948278E-01 -2.460649510578E-01
C36  1.958934612940E-01  1.107789051722E-01 -2.539350489422E-01
H37  2.358557310649E-01  3.024600133355E-01  1.849468528158E-01
H38 -2.358557310649E-01 -1.975399866645E-01  3.150531471842E-01
H39 -2.358557310649E-01 -3.024600133355E-01 -1.849468528158E-01
H40  2.358557310649E-01  1.975399866645E-01 -3.150531471842E-01
C41  2.169533771268E-01 -4.996320036078E-01  4.012117867937E-01
C42 -2.169533771268E-01  3.679963921926E-04  9.878821320628E-02
C43 -2.169533771268E-01  4.996320036078E-01 -4.012117867937E-01
C44  2.169533771268E-01 -3.679963921928E-04 -9.878821320628E-02
C45  2.939307175579E-01 -4.928945107323E-01  4.786491530266E-01
C46 -2.939307175579E-01  7.105489267655E-03  2.135084697344E-02
C47 -2.939307175579E-01  4.928945107323E-01 -4.786491530266E-01
C48  2.939307175579E-01 -7.105489267655E-03 -2.135084697344E-02
C49  3.089308057952E-01 -4.378812710232E-01 -3.170876844658E-01
C50 -3.089308057952E-01  6.211872897681E-02 -1.829123155342E-01
C51 -3.089308057952E-01  4.378812710232E-01  3.170876844658E-01
C52  3.089308057952E-01 -6.211872897681E-02  1.829123155342E-01
H53  2.633265929846E-01 -4.103499920317E-01 -2.170016726537E-01
H54 -2.633265929846E-01  8.965000796826E-02 -2.829983273463E-01
H55 -2.633265929846E-01  4.103499920317E-01  2.170016726537E-01
H56  2.633265929846E-01 -8.965000796826E-02  2.829983273463E-01
C57  3.791936074577E-01 -4.209776006448E-01 -2.452577559726E-01
C58 -3.791936074577E-01  7.902239935515E-02 -2.547422440274E-01
C59 -3.791936074577E-01  4.209776006448E-01  2.452577559726E-01
C60  3.791936074577E-01 -7.902239935516E-02  2.547422440274E-01
H61  3.890033709840E-01 -3.772509219585E-01 -9.080219016271E-02
H62 -3.890033709840E-01  1.227490780415E-01 -4.091978098373E-01
H63 -3.890033709840E-01  3.772509219585E-01  9.080219016271E-02
H64  3.890033709840E-01 -1.227490780415E-01  4.091978098373E-01
C65  4.409306353605E-01 -4.596196239305E-01 -3.699582662047E-01
C66 -4.409306353605E-01  4.038037606952E-02 -1.300417337953E-01
C67 -4.409306353605E-01  4.596196239305E-01  3.699582662047E-01
C68  4.409306353605E-01 -4.038037606952E-02  1.300417337953E-01
C69  4.268279266702E-01  4.800718300575E-01  4.266136481435E-01
C70 -4.268279266702E-01 -1.992816994253E-02  7.338635185648E-02
C71 -4.268279266702E-01 -4.800718300575E-01 -4.266136481435E-01
C72  4.268279266702E-01  1.992816994253E-02 -7.338635185648E-02
C73  3.525434425034E-01  4.658040606005E-01  3.571971342287E-01
C74 -3.525434425034E-01 -3.419593939952E-02  1.428028657713E-01
C75 -3.525434425034E-01 -4.658040606005E-01 -3.571971342287E-01
C76  3.525434425034E-01  3.419593939951E-02 -1.428028657713E-01
H77  3.432832048987E-01  4.258258404893E-01  2.009552435141E-01
H78 -3.432832048987E-01 -7.417415951066E-02  2.990447564859E-01
H79 -3.432832048987E-01 -4.258258404893E-01 -2.009552435141E-01
H80  3.432832048987E-01  7.417415951066E-02 -2.990447564859E-01
C81 -4.864905054460E-01 -4.409440702114E-01 -3.017069506252E-01
C82  4.864905054460E-01  5.905592978865E-02 -1.982930493748E-01
C83  4.864905054460E-01  4.409440702114E-01  3.017069506252E-01
C84 -4.864905054460E-01 -5.905592978865E-02  1.982930493748E-01
H85 -4.761364629876E-01 -3.950197512220E-01 -1.482637188371E-01
H86  4.761364629876E-01  1.049802487780E-01 -3.517362811629E-01
H87  4.761364629876E-01  3.950197512220E-01  1.482637188371E-01
H88 -4.761364629876E-01 -1.049802487780E-01  3.517362811629E-01


#===END

data_OPT_STEP_20

_symmetry_space_group_name_H-M 'P 1'
_cell_length_a     18.12664808
_cell_length_b      8.03193304
_cell_length_c      6.55643043
_cell_angle_alpha   90.000000
_cell_angle_beta   90.418543
_cell_angle_gamma   90.000000

loop_
_atom_site_label
_atom_site_fract_x
_atom_site_fract_y
_atom_site_fract_z
C1  1.627182752495E-01 -3.918944374076E-01  4.790254613336E-01
C2 -1.627182752495E-01  1.081055625924E-01  2.097453866642E-02
C3 -1.627182752495E-01  3.918944374076E-01 -4.790254613336E-01
C4  1.627182752495E-01 -1.081055625924E-01 -2.097453866642E-02
H5  1.768413878857E-01 -3.025243617731E-01 -4.034550709355E-01
H6 -1.768413878857E-01  1.974756382269E-01 -9.654492906453E-02
H7 -1.768413878857E-01  3.025243617731E-01  4.034550709355E-01
H8  1.768413878857E-01 -1.974756382269E-01  9.654492906453E-02
C9  9.065418392720E-02 -3.967383760358E-01  4.057639505811E-01
C10 -9.065418392720E-02  1.032616239642E-01  9.423604941894E-02
C11 -9.065418392720E-02  3.967383760358E-01 -4.057639505811E-01
C12  9.065418392720E-02 -1.032616239642E-01 -9.423604941894E-02
H13  4.997699806201E-02 -3.133476322484E-01  4.698820318003E-01
H14 -4.997699806201E-02  1.866523677516E-01  3.011796819969E-02
H15 -4.997699806201E-02  3.133476322484E-01 -4.698820318003E-01
H16  4.997699806201E-02 -1.866523677516E-01 -3.011796819969E-02
C17  7.083162528972E-02  4.923147548004E-01  2.519389550808E-01
C18 -7.083162528972E-02 -7.685245199585E-03  2.480610449192E-01
C19 -7.083162528972E-02 -4.923147548004E-01 -2.519389550808E-01
C20  7.083162528972E-02  7.685245199585E-03 -2.480610449192E-01
H21  1.445426607382E-02  4.882547533533E-01  1.960126726230E-01
H22 -1.445426607382E-02 -1.174524664671E-02  3.039873273770E-01
H23 -1.445426607382E-02 -4.882547533533E-01 -1.960126726230E-01
H24  1.445426607382E-02  1.174524664671E-02 -3.039873273770E-01
C25  1.238864652195E-01  3.851461539974E-01  1.729036648161E-01
C26 -1.238864652195E-01 -1.148538460026E-01  3.270963351839E-01
C27 -1.238864652195E-01 -3.851461539974E-01 -1.729036648161E-01
C28  1.238864652195E-01  1.148538460026E-01 -3.270963351839E-01
H29  1.095269312299E-01  2.973827950060E-01  5.353717369581E-02
H30 -1.095269312299E-01 -2.026172049940E-01  4.464628263042E-01
H31 -1.095269312299E-01 -2.973827950060E-01 -5.353717369581E-02
H32  1.095269312299E-01  2.026172049940E-01 -4.464628263042E-01
C33  1.958056586836E-01  3.891071438325E-01  2.474290706116E-01
C34 -1.958056586836E-01 -1.108928561675E-01  2.525709293884E-01
C35 -1.958056586836E-01 -3.891071438325E-01 -2.474290706116E-01
C36  1.958056586836E-01  1.108928561675E-01 -2.525709293884E-01
H37  2.357360546098E-01  3.016315288621E-01  1.875087140653E-01
H38 -2.357360546098E-01 -1.983684711379E-01  3.124912859347E-01
H39 -2.357360546098E-01 -3.016315288621E-01 -1.875087140653E-01
H40  2.357360546098E-01  1.983684711379E-01 -3.124912859347E-01
C41  2.168240700191E-01 -4.990984308461E-01  4.015200653982E-01
C42 -2.168240700191E-01  9.015691538665E-04  9.847993460184E-02
C43 -2.168240700191E-01  4.990984308461E-01 -4.015200653982E-01
C44  2.168240700191E-01 -9.015691538667E-04 -9.847993460184E-02
C45  2.938411629868E-01 -4.916252269183E-01  4.784936049559E-01
C46 -2.938411629868E-01  8.374773081673E-03  2.150639504412E-02
C47 -2.938411629868E-01  4.916252269183E-01 -4.784936049559E-01
C48  2.938411629868E-01 -8.374773081673E-03 -2.150639504412E-02
C49  3.087950035794E-01 -4.362595755692E-01 -3.176502827873E-01
C50 -3.087950035794E-01  6.374042443083E-02 -1.823497172127E-01
C51 -3.087950035794E-01  4.362595755692E-01  3.176502827873E-01
C52  3.087950035794E-01 -6.374042443083E-02  1.823497172127E-01
H53  2.631420624341E-01 -4.088320126363E-01 -2.175747312489E-01
H54 -2.631420624341E-01  9.116798736365E-02 -2.824252687511E-01
H55 -2.631420624341E-01  4.088320126363E-01  2.175747312489E-01
H56  2.631420624341E-01 -9.116798736365E-02  2.824252687511E-01
C57  3.790730396482E-01 -4.201457063180E-01 -2.457077789906E-01
C58 -3.790730396482E-01  7.985429368199E-02 -2.542922210094E-01
C59 -3.790730396482E-01  4.201457063180E-01  2.457077789906E-01
C60  3.790730396482E-01 -7.985429368199E-02  2.542922210094E-01
H61  3.888501122054E-01 -3.763945975109E-01 -9.146558085434E-02
H62 -3.888501122054E-01  1.236054024891E-01 -4.085344191457E-01
H63 -3.888501122054E-01  3.763945975109E-01  9.146558085434E-02
H64  3.888501122054E-01 -1.236054024891E-01  4.085344191457E-01
C65  4.408693115161E-01 -4.589309173647E-01 -3.703063435419E-01
C66 -4.408693115161E-01  4.106908263533E-02 -1.296936564581E-01
C67 -4.408693115161E-01  4.589309173647E-01  3.703063435419E-01
C68  4.408693115161E-01 -4.106908263533E-02  1.296936564581E-01
C69  4.268051185598E-01  4.805768055456E-01  4.266159843988E-01
C70 -4.268051185598E-01 -1.942319445438E-02  7.338401560119E-02
C71 -4.268051185598E-01 -4.805768055456E-01 -4.266159843988E-01
C72  4.268051185598E-01  1.942319445438E-02 -7.338401560119E-02
C73  3.525029351262E-01  4.666325364741E-01  3.572801431460E-01
C74 -3.525029351261E-01 -3.336746352589E-02  1.427198568540E-01
C75 -3.525029351262E-01 -4.666325364741E-01 -3.572801431460E-01
C76  3.525029351261E-01  3.336746352589E-02 -1.427198568540E-01
H77  3.432699467901E-01  4.266340558047E-01  2.012570648393E-01
H78 -3.432699467901E-01 -7.336594419532E-02  2.987429351607E-01
H79 -3.432699467901E-01 -4.266340558047E-01 -2.012570648393E-01
H80  3.432699467901E-01  7.336594419532E-02 -2.987429351607E-01
C81 -4.865309930416E-01 -4.402799858258E-01 -3.022706037784E-01
C82  4.865309930416E-01  5.972001417416E-02 -1.977293962216E-01
C83  4.865309930416E-01  4.402799858258E-01  3.022706037784E-01
C84 -4.865309930416E-01 -5.972001417416E-02  1.977293962216E-01
H85 -4.762206557990E-01 -3.935684021372E-01 -1.494030406706E-01
H86  4.762206557990E-01  1.064315978628E-01 -3.505969593294E-01
H87  4.762206557989E-01  3.935684021372E-01  1.494030406706E-01
H88 -4.762206557990E-01 -1.064315978628E-01  3.505969593294E-01


#===END

data_OPT_STEP_21

_symmetry_space_group_name_H-M 'P 1'
_cell_length_a     18.12050917
_cell_length_b      8.05249121
_cell_length_c      6.56459103
_cell_angle_alpha   90.000000
_cell_angle_beta   90.336606
_cell_angle_gamma   90.000000

loop_
_atom_site_label
_atom_site_fract_x
_atom_site_fract_y
_atom_site_fract_z
C1  1.627643405828E-01 -3.912012232536E-01  4.775710172119E-01
C2 -1.627643405828E-01  1.087987767464E-01  2.242898278813E-02
C3 -1.627643405828E-01  3.912012232536E-01 -4.775710172119E-01
C4  1.627643405828E-01 -1.087987767464E-01 -2.242898278813E-02
H5  1.770331045625E-01 -3.004959288385E-01 -4.066884663258E-01
H6 -1.770331045625E-01  1.995040711615E-01 -9.331153367418E-02
H7 -1.770331045625E-01  3.004959288385E-01  4.066884663258E-01
H8  1.770331045625E-01 -1.995040711615E-01  9.331153367418E-02
C9  9.060721097719E-02 -3.967566643168E-01  4.052293862412E-01
C10 -9.060721097719E-02  1.032433356832E-01  9.477061375882E-02
C11 -9.060721097719E-02  3.967566643168E-01 -4.052293862412E-01
C12  9.060721097719E-02 -1.032433356832E-01 -9.477061375882E-02
H13  4.992562034857E-02 -3.132291879320E-01  4.689864266074E-01
H14 -4.992562034857E-02  1.867708120680E-01  3.101357339258E-02
H15 -4.992562034857E-02  3.132291879320E-01 -4.689864266074E-01
H16  4.992562034857E-02 -1.867708120680E-01 -3.101357339258E-02
C17  7.070784248195E-02  4.916348461003E-01  2.526375301703E-01
C18 -7.070784248195E-02 -8.365153899746E-03  2.473624698297E-01
C19 -7.070784248195E-02 -4.916348461003E-01 -2.526375301703E-01
C20  7.070784248195E-02  8.365153899746E-03 -2.473624698297E-01
H21  1.431071320959E-02  4.875283074525E-01  1.969174146185E-01
H22 -1.431071320959E-02 -1.247169254753E-02  3.030825853815E-01
H23 -1.431071320959E-02 -4.875283074525E-01 -1.969174146185E-01
H24  1.431071320959E-02  1.247169254753E-02 -3.030825853815E-01
C25  1.238700015901E-01  3.855493632063E-01  1.730673714763E-01
C26 -1.238700015901E-01 -1.144506367937E-01  3.269326285237E-01
C27 -1.238700015901E-01 -3.855493632063E-01 -1.730673714763E-01
C28  1.238700015901E-01  1.144506367937E-01 -3.269326285237E-01
H29  1.094898557652E-01  2.974543035710E-01  5.454454206969E-02
H30 -1.094898557652E-01 -2.025456964290E-01  4.454554579303E-01
H31 -1.094898557652E-01 -2.974543035710E-01 -5.454454206969E-02
H32  1.094898557652E-01  2.025456964290E-01 -4.454554579303E-01
C33  1.958305756378E-01  3.898579871655E-01  2.470642135373E-01
C34 -1.958305756378E-01 -1.101420128345E-01  2.529357864627E-01
C35 -1.958305756378E-01 -3.898579871655E-01 -2.470642135373E-01
C36  1.958305756378E-01  1.101420128345E-01 -2.529357864627E-01
H37  2.357327263626E-01  3.022108557763E-01  1.877718796570E-01
H38 -2.357327263626E-01 -1.977891442237E-01  3.122281203430E-01
H39 -2.357327263626E-01 -3.022108557763E-01 -1.877718796570E-01
H40  2.357327263626E-01  1.977891442237E-01 -3.122281203430E-01
C41  2.168471431574E-01 -4.984782511493E-01  4.005615282545E-01
C42 -2.168471431574E-01  1.521748850695E-03  9.943847174548E-02
C43 -2.168471431574E-01  4.984782511493E-01 -4.005615282545E-01
C44  2.168471431574E-01 -1.521748850695E-03 -9.943847174548E-02
C45  2.937807887987E-01 -4.918957660956E-01  4.780548860113E-01
C46 -2.937807887987E-01  8.104233904431E-03  2.194511398870E-02
C47 -2.937807887987E-01  4.918957660956E-01 -4.780548860113E-01
C48  2.937807887987E-01 -8.104233904432E-03 -2.194511398870E-02
C49  3.085621882947E-01 -4.367244818039E-01 -3.182834069176E-01
C50 -3.085621882947E-01  6.327551819612E-02 -1.817165930824E-01
C51 -3.085621882947E-01  4.367244818039E-01  3.182834069176E-01
C52  3.085621882947E-01 -6.327551819612E-02  1.817165930824E-01
H53  2.628044929054E-01 -4.091453380532E-01 -2.185127328345E-01
H54 -2.628044929054E-01  9.085466194682E-02 -2.814872671655E-01
H55 -2.628044929054E-01  4.091453380532E-01  2.185127328345E-01
H56  2.628044929054E-01 -9.085466194682E-02  2.814872671655E-01
C57  3.788146222381E-01 -4.201829061336E-01 -2.464442979916E-01
C58 -3.788146222381E-01  7.981709386643E-02 -2.535557020084E-01
C59 -3.788146222381E-01  4.201829061336E-01  2.464442979916E-01
C60  3.788146222381E-01 -7.981709386643E-02  2.535557020084E-01
H61  3.884823711341E-01 -3.762674512637E-01 -9.246838974289E-02
H62 -3.884823711341E-01  1.237325487363E-01 -4.075316102571E-01
H63 -3.884823711341E-01  3.762674512637E-01  9.246838974289E-02
H64  3.884823711341E-01 -1.237325487363E-01  4.075316102571E-01
C65  4.407380783530E-01 -4.590088477248E-01 -3.706490078948E-01
C66 -4.407380783530E-01  4.099115227524E-02 -1.293509921052E-01
C67 -4.407380783530E-01  4.590088477248E-01  3.706490078948E-01
C68  4.407380783530E-01 -4.099115227524E-02  1.293509921052E-01
C69  4.268382575498E-01  4.802384528052E-01  4.266670914673E-01
C70 -4.268382575498E-01 -1.976154719479E-02  7.333290853265E-02
C71 -4.268382575498E-01 -4.802384528052E-01 -4.266670914673E-01
C72  4.268382575498E-01  1.976154719479E-02 -7.333290853265E-02
C73  3.525620751402E-01  4.660979976924E-01  3.573362766411E-01
C74 -3.525620751402E-01 -3.390200230764E-02  1.426637233589E-01
C75 -3.525620751402E-01 -4.660979976924E-01 -3.573362766411E-01
C76  3.525620751402E-01  3.390200230764E-02 -1.426637233589E-01
H77  3.434388619666E-01  4.260107086047E-01  2.015418492365E-01
H78 -3.434388619666E-01 -7.398929139526E-02  2.984581507635E-01
H79 -3.434388619666E-01 -4.260107086047E-01 -2.015418492365E-01
H80  3.434388619666E-01  7.398929139526E-02 -2.984581507635E-01
C81 -4.866908748278E-01 -4.401120862922E-01 -3.026193579505E-01
C82  4.866908748278E-01  5.988791370778E-02 -1.973806420495E-01
C83  4.866908748278E-01  4.401120862922E-01  3.026193579505E-01
C84 -4.866908748278E-01 -5.988791370778E-02  1.973806420495E-01
H85 -4.765126287150E-01 -3.930717435479E-01 -1.500887372854E-01
H86  4.765126287150E-01  1.069282564521E-01 -3.499112627146E-01
H87  4.765126287150E-01  3.930717435479E-01  1.500887372854E-01
H88 -4.765126287150E-01 -1.069282564521E-01  3.499112627146E-01


#===END

data_OPT_STEP_22

_symmetry_space_group_name_H-M 'P 1'
_cell_length_a     18.11686747
_cell_length_b      8.06790093
_cell_length_c      6.56742174
_cell_angle_alpha   90.000000
_cell_angle_beta   90.298206
_cell_angle_gamma   90.000000

loop_
_atom_site_label
_atom_site_fract_x
_atom_site_fract_y
_atom_site_fract_z
C1  1.625992187586E-01 -3.907335234813E-01  4.774671551700E-01
C2 -1.625992187586E-01  1.092664765187E-01  2.253284482996E-02
C3 -1.625992187586E-01  3.907335234813E-01 -4.774671551700E-01
C4  1.625992187586E-01 -1.092664765187E-01 -2.253284482996E-02
H5  1.768545540581E-01 -2.997210816706E-01 -4.073388179212E-01
H6 -1.768545540581E-01  2.002789183294E-01 -9.266118207879E-02
H7 -1.768545540581E-01  2.997210816706E-01  4.073388179212E-01
H8  1.768545540581E-01 -2.002789183294E-01  9.266118207879E-02
C9  9.048874712448E-02 -3.961153563287E-01  4.047841007544E-01
C10 -9.048874712448E-02  1.038846436713E-01  9.521589924561E-02
C11 -9.048874712448E-02  3.961153563287E-01 -4.047841007544E-01
C12  9.048874712448E-02 -1.038846436713E-01 -9.521589924561E-02
H13  4.976547526579E-02 -3.126700438183E-01  4.682536762759E-01
H14 -4.976547526579E-02  1.873299561817E-01  3.174632372414E-02
H15 -4.976547526579E-02  3.126700438183E-01 -4.682536762759E-01
H16  4.976547526579E-02 -1.873299561817E-01 -3.174632372414E-02
C17  7.058772249165E-02  4.916621542624E-01  2.530643650970E-01
C18 -7.058772249165E-02 -8.337845737561E-03  2.469356349030E-01
C19 -7.058772249165E-02 -4.916621542624E-01 -2.530643650970E-01
C20  7.058772249165E-02  8.337845737561E-03 -2.469356349030E-01
H21  1.419400708244E-02  4.874199581800E-01  1.973757574024E-01
H22 -1.419400708244E-02 -1.258004182005E-02  3.026242425976E-01
H23 -1.419400708244E-02 -4.874199581800E-01 -1.973757574024E-01
H24  1.419400708244E-02  1.258004182005E-02 -3.026242425976E-01
C25  1.237446635903E-01  3.851955693669E-01  1.743256902412E-01
C26 -1.237446635903E-01 -1.148044306331E-01  3.256743097588E-01
C27 -1.237446635903E-01 -3.851955693669E-01 -1.743256902412E-01
C28  1.237446635903E-01  1.148044306331E-01 -3.256743097588E-01
H29  1.093226850807E-01  2.961886682890E-01  5.689766343437E-02
H30 -1.093226850807E-01 -2.038113317110E-01  4.431023365656E-01
H31 -1.093226850807E-01 -2.961886682890E-01 -5.689766343437E-02
H32  1.093226850807E-01  2.038113317110E-01 -4.431023365656E-01
C33  1.957030920947E-01  3.897472399589E-01  2.482914727764E-01
C34 -1.957030920947E-01 -1.102527600411E-01  2.517085272236E-01
C35 -1.957030920947E-01 -3.897472399589E-01 -2.482914727764E-01
C36  1.957030920947E-01  1.102527600411E-01 -2.517085272236E-01
H37  2.356917771409E-01  3.027459139750E-01  1.888813842396E-01
H38 -2.356917771409E-01 -1.972540860250E-01  3.111186157604E-01
H39 -2.356917771409E-01 -3.027459139750E-01 -1.888813842396E-01
H40  2.356917771409E-01  1.972540860250E-01 -3.111186157604E-01
C41  2.167537917037E-01 -4.976473832465E-01  4.006228405669E-01
C42 -2.167537917037E-01  2.352616753493E-03  9.937715943313E-02
C43 -2.167537917037E-01  4.976473832465E-01 -4.006228405669E-01
C44  2.167537917037E-01 -2.352616753493E-03 -9.937715943313E-02
C45  2.937259075277E-01 -4.903663036731E-01  4.776943676415E-01
C46 -2.937259075277E-01  9.633696326912E-03  2.230563235847E-02
C47 -2.937259075277E-01  4.903663036731E-01 -4.776943676415E-01
C48  2.937259075277E-01 -9.633696326912E-03 -2.230563235847E-02
C49  3.085153289591E-01 -4.342884911531E-01 -3.191714438095E-01
C50 -3.085153289591E-01  6.571150884694E-02 -1.808285561905E-01
C51 -3.085153289591E-01  4.342884911531E-01  3.191714438095E-01
C52  3.085153289591E-01 -6.571150884694E-02  1.808285561905E-01
H53  2.627424138914E-01 -4.050067469533E-01 -2.200974177287E-01
H54 -2.627424138914E-01  9.499325304671E-02 -2.799025822713E-01
H55 -2.627424138914E-01  4.050067469533E-01  2.200974177287E-01
H56  2.627424138914E-01 -9.499325304671E-02  2.799025822713E-01
C57  3.787775039703E-01 -4.182280721399E-01 -2.472814657511E-01
C58 -3.787775039703E-01  8.177192786006E-02 -2.527185342489E-01
C59 -3.787775039703E-01  4.182280721399E-01  2.472814657511E-01
C60  3.787775039703E-01 -8.177192786007E-02  2.527185342489E-01
H61  3.884356970403E-01 -3.743227716669E-01 -9.342818839486E-02
H62 -3.884356970403E-01  1.256772283331E-01 -4.065718116051E-01
H63 -3.884356970403E-01  3.743227716669E-01  9.342818839486E-02
H64  3.884356970403E-01 -1.256772283331E-01  4.065718116051E-01
C65  4.407219140673E-01 -4.585081597733E-01 -3.708595263450E-01
C66 -4.407219140673E-01  4.149184022672E-02 -1.291404736550E-01
C67 -4.407219140673E-01  4.585081597733E-01  3.708595263450E-01
C68  4.407219140673E-01 -4.149184022672E-02  1.291404736550E-01
C69  4.268137703448E-01  4.814578463944E-01  4.262838174651E-01
C70 -4.268137703448E-01 -1.854215360561E-02  7.371618253494E-02
C71 -4.268137703448E-01 -4.814578463944E-01 -4.262838174651E-01
C72  4.268137703448E-01  1.854215360561E-02 -7.371618253494E-02
C73  3.525308530573E-01  4.679568896741E-01  3.568275105620E-01
C74 -3.525308530573E-01 -3.204311032594E-02  1.431724894380E-01
C75 -3.525308530573E-01 -4.679568896741E-01 -3.568275105620E-01
C76  3.525308530573E-01  3.204311032594E-02 -1.431724894380E-01
H77  3.434161592040E-01  4.279331438543E-01  2.011333870858E-01
H78 -3.434161592040E-01 -7.206685614570E-02  2.988666129142E-01
H79 -3.434161592040E-01 -4.279331438543E-01 -2.011333870858E-01
H80  3.434161592040E-01  7.206685614570E-02 -2.988666129142E-01
C81 -4.866808488192E-01 -4.406828582918E-01 -3.025152224559E-01
C82  4.866808488192E-01  5.931714170819E-02 -1.974847775441E-01
C83  4.866808488192E-01  4.406828582918E-01  3.025152224559E-01
C84 -4.866808488192E-01 -5.931714170819E-02  1.974847775441E-01
H85 -4.765103359150E-01 -3.935784772861E-01 -1.501444815698E-01
H86  4.765103359150E-01  1.064215227139E-01 -3.498555184302E-01
H87  4.765103359150E-01  3.935784772861E-01  1.501444815698E-01
H88 -4.765103359150E-01 -1.064215227139E-01  3.498555184302E-01


#===END

data_OPT_STEP_23

_symmetry_space_group_name_H-M 'P 1'
_cell_length_a     18.12012397
_cell_length_b      8.05452134
_cell_length_c      6.56508131
_cell_angle_alpha   90.000000
_cell_angle_beta   90.333568
_cell_angle_gamma   90.000000

loop_
_atom_site_label
_atom_site_fract_x
_atom_site_fract_y
_atom_site_fract_z
C1  1.627266919664E-01 -3.912548056849E-01  4.776682943157E-01
C2 -1.627266919664E-01  1.087451943151E-01  2.233170568429E-02
C3 -1.627266919664E-01  3.912548056849E-01 -4.776682943157E-01
C4  1.627266919664E-01 -1.087451943151E-01 -2.233170568429E-02
H5  1.769980813203E-01 -3.004944305230E-01 -4.066929417052E-01
H6 -1.769980813203E-01  1.995055694770E-01 -9.330705829480E-02
H7 -1.769980813203E-01  3.004944305230E-01  4.066929417052E-01
H8  1.769980813203E-01 -1.995055694770E-01  9.330705829480E-02
C9  9.059741922403E-02 -3.965887410894E-01  4.050925784095E-01
C10 -9.059741922403E-02  1.034112589106E-01  9.490742159053E-02
C11 -9.059741922403E-02  3.965887410894E-01 -4.050925784095E-01
C12  9.059741922403E-02 -1.034112589106E-01 -9.490742159053E-02
H13  4.990991174636E-02 -3.130708878447E-01  4.687849540517E-01
H14 -4.990991174636E-02  1.869291121553E-01  3.121504594828E-02
H15 -4.990991174636E-02  3.130708878447E-01 -4.687849540517E-01
H16  4.990991174636E-02 -1.869291121553E-01 -3.121504594828E-02
C17  7.068216732323E-02  4.916098583987E-01  2.527362133018E-01
C18 -7.068216732323E-02 -8.390141601341E-03  2.472637866982E-01
C19 -7.068216732323E-02 -4.916098583987E-01 -2.527362133018E-01
C20  7.068216732323E-02  8.390141601340E-03 -2.472637866982E-01
H21  1.428354470613E-02  4.874912742841E-01  1.970301114578E-01
H22 -1.428354470613E-02 -1.250872571593E-02  3.029698885422E-01
H23 -1.428354470613E-02 -4.874912742841E-01 -1.970301114578E-01
H24  1.428354470613E-02  1.250872571593E-02 -3.029698885422E-01
C25  1.238194260376E-01  3.852825033109E-01  1.734653978800E-01
C26 -1.238194260376E-01 -1.147174966891E-01  3.265346021200E-01
C27 -1.238194260376E-01 -3.852825033109E-01 -1.734653978800E-01
C28  1.238194260376E-01  1.147174966891E-01 -3.265346021200E-01
H29  1.094046936566E-01  2.967990611921E-01  5.534815304378E-02
H30 -1.094046936566E-01 -2.032009388079E-01  4.446518469562E-01
H31 -1.094046936566E-01 -2.967990611921E-01 -5.534815304378E-02
H32  1.094046936566E-01  2.032009388079E-01 -4.446518469562E-01
C33  1.957761478652E-01  3.895876119735E-01  2.474988103600E-01
C34 -1.957761478652E-01 -1.104123880265E-01  2.525011896400E-01
C35 -1.957761478652E-01 -3.895876119735E-01 -2.474988103600E-01
C36  1.957761478652E-01  1.104123880265E-01 -2.525011896400E-01
H37  2.356995088567E-01  3.021544944655E-01  1.881166344746E-01
H38 -2.356995088567E-01 -1.978455055345E-01  3.118833655254E-01
H39 -2.356995088567E-01 -3.021544944655E-01 -1.881166344746E-01
H40  2.356995088567E-01  1.978455055345E-01 -3.118833655254E-01
C41  2.168220489930E-01 -4.984166426065E-01  4.006417818215E-01
C42 -2.168220489930E-01  1.583357393492E-03  9.935821817854E-02
C43 -2.168220489930E-01  4.984166426065E-01 -4.006417818215E-01
C44  2.168220489930E-01 -1.583357393492E-03 -9.935821817854E-02
C45  2.937706031026E-01 -4.916162082967E-01  4.780018791230E-01
C46 -2.937706031026E-01  8.383791703281E-03  2.199812087696E-02
C47 -2.937706031026E-01  4.916162082967E-01 -4.780018791230E-01
C48  2.937706031026E-01 -8.383791703282E-03 -2.199812087696E-02
C49  3.085632095829E-01 -4.361373410759E-01 -3.184886881024E-01
C50 -3.085632095829E-01  6.386265892411E-02 -1.815113118976E-01
C51 -3.085632095829E-01  4.361373410759E-01  3.184886881024E-01
C52  3.085632095829E-01 -6.386265892411E-02  1.815113118976E-01
H53  2.628046717207E-01 -4.079185276338E-01 -2.189746703774E-01
H54 -2.628046717207E-01  9.208147236621E-02 -2.810253296226E-01
H55 -2.628046717207E-01  4.079185276338E-01  2.189746703774E-01
H56  2.628046717207E-01 -9.208147236621E-02  2.810253296226E-01
C57  3.788187391089E-01 -4.197303807853E-01 -2.466253440876E-01
C58 -3.788187391089E-01  8.026961921466E-02 -2.533746559124E-01
C59 -3.788187391089E-01  4.197303807853E-01  2.466253440876E-01
C60  3.788187391089E-01 -8.026961921466E-02  2.533746559124E-01
H61  3.884905361008E-01 -3.758155428052E-01 -9.267314008101E-02
H62 -3.884905361008E-01  1.241844571948E-01 -4.073268599190E-01
H63 -3.884905361008E-01  3.758155428052E-01  9.267314008101E-02
H64  3.884905361008E-01 -1.241844571948E-01  4.073268599190E-01
C65  4.407410589288E-01 -4.589649721791E-01 -3.706590436533E-01
C66 -4.407410589288E-01  4.103502782088E-02 -1.293409563467E-01
C67 -4.407410589288E-01  4.589649721791E-01  3.706590436533E-01
C68  4.407410589288E-01 -4.103502782088E-02  1.293409563467E-01
C69  4.268313465683E-01  4.804854363333E-01  4.265883845050E-01
C70 -4.268313465683E-01 -1.951456366671E-02  7.341161549498E-02
C71 -4.268313465683E-01 -4.804854363333E-01 -4.265883845050E-01
C72  4.268313465683E-01  1.951456366671E-02 -7.341161549498E-02
C73  3.525530398242E-01  4.665278007696E-01  3.572080515589E-01
C74 -3.525530398242E-01 -3.347219923041E-02  1.427919484411E-01
C75 -3.525530398242E-01 -4.665278007696E-01 -3.572080515589E-01
C76  3.525530398242E-01  3.347219923041E-02 -1.427919484411E-01
H77  3.434290551562E-01  4.264487954614E-01  2.014330508772E-01
H78 -3.434290551562E-01 -7.355120453859E-02  2.985669491228E-01
H79 -3.434290551562E-01 -4.264487954614E-01 -2.014330508772E-01
H80  3.434290551562E-01  7.355120453859E-02 -2.985669491228E-01
C81 -4.866812404087E-01 -4.402349367262E-01 -3.025891307140E-01
C82  4.866812404087E-01  5.976506327381E-02 -1.974108692860E-01
C83  4.866812404087E-01  4.402349367262E-01  3.025891307140E-01
C84 -4.866812404087E-01 -5.976506327381E-02  1.974108692860E-01
H85 -4.765023805302E-01 -3.930524289604E-01 -1.501464490280E-01
H86  4.765023805302E-01  1.069475710396E-01 -3.498535509720E-01
H87  4.765023805302E-01  3.930524289604E-01  1.501464490280E-01
H88 -4.765023805302E-01 -1.069475710396E-01  3.498535509720E-01


#===END

data_OPT_STEP_24

_symmetry_space_group_name_H-M 'P 1'
_cell_length_a     18.11643247
_cell_length_b      8.05472402
_cell_length_c      6.56615081
_cell_angle_alpha   90.000000
_cell_angle_beta   90.314640
_cell_angle_gamma   90.000000

loop_
_atom_site_label
_atom_site_fract_x
_atom_site_fract_y
_atom_site_fract_z
C1  1.626736640122E-01 -3.909247432933E-01  4.774534228385E-01
C2 -1.626736640122E-01  1.090752567067E-01  2.254657716153E-02
C3 -1.626736640122E-01  3.909247432933E-01 -4.774534228385E-01
C4  1.626736640122E-01 -1.090752567067E-01 -2.254657716153E-02
H5  1.769130128083E-01 -3.002575247736E-01 -4.068713291805E-01
H6 -1.769130128083E-01  1.997424752264E-01 -9.312867081952E-02
H7 -1.769130128083E-01  3.002575247736E-01  4.068713291805E-01
H8  1.769130128083E-01 -1.997424752264E-01  9.312867081952E-02
C9  9.055050924120E-02 -3.962593648347E-01  4.048098718017E-01
C10 -9.055050924120E-02  1.037406351653E-01  9.519012819835E-02
C11 -9.055050924120E-02  3.962593648347E-01 -4.048098718017E-01
C12  9.055050924120E-02 -1.037406351653E-01 -9.519012819835E-02
H13  4.983270930347E-02 -3.128133604274E-01  4.684569925060E-01
H14 -4.983270930347E-02  1.871866395726E-01  3.154300749400E-02
H15 -4.983270930347E-02  3.128133604274E-01 -4.684569925060E-01
H16  4.983270930347E-02 -1.871866395726E-01 -3.154300749400E-02
C17  7.066715852851E-02  4.919322115060E-01  2.525373609878E-01
C18 -7.066715852851E-02 -8.067788493973E-03  2.474626390122E-01
C19 -7.066715852851E-02 -4.919322115060E-01 -2.525373609878E-01
C20  7.066715852851E-02  8.067788493973E-03 -2.474626390122E-01
H21  1.425766241341E-02  4.876851816627E-01  1.969334913246E-01
H22 -1.425766241341E-02 -1.231481833732E-02  3.030665086754E-01
H23 -1.425766241341E-02 -4.876851816627E-01 -1.969334913246E-01
H24  1.425766241341E-02  1.231481833732E-02 -3.030665086754E-01
C25  1.237792775539E-01  3.851030911873E-01  1.738292372078E-01
C26 -1.237792775539E-01 -1.148969088127E-01  3.261707627922E-01
C27 -1.237792775539E-01 -3.851030911873E-01 -1.738292372078E-01
C28  1.237792775539E-01  1.148969088127E-01 -3.261707627922E-01
H29  1.093685557994E-01  2.964614603133E-01  5.591568429412E-02
H30 -1.093685557994E-01 -2.035385396867E-01  4.440843157059E-01
H31 -1.093685557994E-01 -2.964614603133E-01 -5.591568429412E-02
H32  1.093685557994E-01  2.035385396867E-01 -4.440843157059E-01
C33  1.957229798702E-01  3.893150352278E-01  2.479942447208E-01
C34 -1.957229798702E-01 -1.106849647722E-01  2.520057552792E-01
C35 -1.957229798702E-01 -3.893150352278E-01 -2.479942447208E-01
C36  1.957229798702E-01  1.106849647722E-01 -2.520057552792E-01
H37  2.356538998530E-01  3.018032593849E-01  1.888038429506E-01
H38 -2.356538998530E-01 -1.981967406151E-01  3.111961570494E-01
H39 -2.356538998530E-01 -3.018032593849E-01 -1.888038429506E-01
H40  2.356538998530E-01  1.981967406151E-01 -3.111961570494E-01
C41  2.167736888922E-01 -4.983192350919E-01  4.007503925315E-01
C42 -2.167736888922E-01  1.680764908097E-03  9.924960746850E-02
C43 -2.167736888922E-01  4.983192350919E-01 -4.007503925315E-01
C44  2.167736888922E-01 -1.680764908097E-03 -9.924960746850E-02
C45  2.937406330956E-01 -4.913083805116E-01  4.779722688247E-01
C46 -2.937406330956E-01  8.691619488406E-03  2.202773117527E-02
C47 -2.937406330956E-01  4.913083805116E-01 -4.779722688247E-01
C48  2.937406330956E-01 -8.691619488406E-03 -2.202773117527E-02
C49  3.085198384062E-01 -4.359275456850E-01 -3.185210605956E-01
C50 -3.085198384062E-01  6.407245431503E-02 -1.814789394044E-01
C51 -3.085198384062E-01  4.359275456850E-01  3.185210605956E-01
C52  3.085198384062E-01 -6.407245431503E-02  1.814789394044E-01
H53  2.627435393279E-01 -4.074732061565E-01 -2.191109287606E-01
H54 -2.627435393279E-01  9.252679384346E-02 -2.808890712394E-01
H55 -2.627435393279E-01  4.074732061565E-01  2.191109287606E-01
H56  2.627435393279E-01 -9.252679384346E-02  2.808890712394E-01
C57  3.787816855347E-01 -4.196592355337E-01 -2.466447554355E-01
C58 -3.787816855347E-01  8.034076446634E-02 -2.533552445645E-01
C59 -3.787816855347E-01  4.196592355337E-01  2.466447554355E-01
C60  3.787816855347E-01 -8.034076446634E-02  2.533552445645E-01
H61  3.884502879754E-01 -3.756732585021E-01 -9.276151463048E-02
H62 -3.884502879754E-01  1.243267414979E-01 -4.072384853695E-01
H63 -3.884502879754E-01  3.756732585021E-01  9.276151463048E-02
H64  3.884502879754E-01 -1.243267414979E-01  4.072384853695E-01
C65  4.407217972765E-01 -4.589725496234E-01 -3.706567088363E-01
C66 -4.407217972765E-01  4.102745037662E-02 -1.293432911637E-01
C67 -4.407217972765E-01  4.589725496234E-01  3.706567088363E-01
C68  4.407217972765E-01 -4.102745037662E-02  1.293432911637E-01
C69  4.268222626342E-01  4.807554121300E-01  4.265044650336E-01
C70 -4.268222626342E-01 -1.924458787004E-02  7.349553496641E-02
C71 -4.268222626342E-01 -4.807554121300E-01 -4.265044650336E-01
C72  4.268222626342E-01  1.924458787004E-02 -7.349553496641E-02
C73  3.525345709213E-01  4.667867410731E-01  3.571790247991E-01
C74 -3.525345709213E-01 -3.321325892689E-02  1.428209752009E-01
C75 -3.525345709213E-01 -4.667867410731E-01 -3.571790247991E-01
C76  3.525345709213E-01  3.321325892689E-02 -1.428209752009E-01
H77  3.434163079201E-01  4.266286076480E-01  2.014810097671E-01
H78 -3.434163079201E-01 -7.337139235200E-02  2.985189902329E-01
H79 -3.434163079201E-01 -4.266286076480E-01 -2.014810097671E-01
H80  3.434163079201E-01  7.337139235200E-02 -2.985189902329E-01
C81 -4.866882787945E-01 -4.407521776492E-01 -3.023924253253E-01
C82  4.866882787945E-01  5.924782235085E-02 -1.976075746747E-01
C83  4.866882787945E-01  4.407521776492E-01  3.023924253253E-01
C84 -4.866882787945E-01 -5.924782235085E-02  1.976075746747E-01
H85 -4.765159839195E-01 -3.941023999786E-01 -1.497355811805E-01
H86  4.765159839195E-01  1.058976000214E-01 -3.502644188195E-01
H87  4.765159839195E-01  3.941023999786E-01  1.497355811805E-01
H88 -4.765159839195E-01 -1.058976000214E-01  3.502644188195E-01


#===END

data_OPT_STEP_25

_symmetry_space_group_name_H-M 'P 1'
_cell_length_a     18.11127060
_cell_length_b      8.05345183
_cell_length_c      6.56699650
_cell_angle_alpha   90.000000
_cell_angle_beta   90.298302
_cell_angle_gamma   90.000000

loop_
_atom_site_label
_atom_site_fract_x
_atom_site_fract_y
_atom_site_fract_z
C1  1.625738058077E-01 -3.911497080251E-01  4.777153982746E-01
C2 -1.625738058077E-01  1.088502919749E-01  2.228460172542E-02
C3 -1.625738058077E-01  3.911497080251E-01 -4.777153982746E-01
C4  1.625738058077E-01 -1.088502919749E-01 -2.228460172542E-02
H5  1.767302533223E-01 -3.011050470973E-01 -4.060946558725E-01
H6 -1.767302533223E-01  1.988949529027E-01 -9.390534412752E-02
H7 -1.767302533223E-01  3.011050470973E-01  4.060946558725E-01
H8  1.767302533223E-01 -1.988949529027E-01  9.390534412752E-02
C9  9.050419905002E-02 -3.960024254924E-01  4.045554144860E-01
C10 -9.050419905002E-02  1.039975745076E-01  9.544458551403E-02
C11 -9.050419905002E-02  3.960024254924E-01 -4.045554144860E-01
C12  9.050419905002E-02 -1.039975745076E-01 -9.544458551403E-02
H13  4.975516590409E-02 -3.125567963741E-01  4.680455438981E-01
H14 -4.975516590409E-02  1.874432036259E-01  3.195445610188E-02
H15 -4.975516590409E-02  3.125567963741E-01 -4.680455438981E-01
H16  4.975516590409E-02 -1.874432036259E-01 -3.195445610188E-02
C17  7.064087094586E-02  4.921278110235E-01  2.524400868910E-01
C18 -7.064087094586E-02 -7.872188976540E-03  2.475599131090E-01
C19 -7.064087094586E-02 -4.921278110235E-01 -2.524400868910E-01
C20  7.064087094586E-02  7.872188976540E-03 -2.475599131090E-01
H21  1.420611913095E-02  4.877257387726E-01  1.970011522053E-01
H22 -1.420611913095E-02 -1.227426122736E-02  3.029988477947E-01
H23 -1.420611913095E-02 -4.877257387726E-01 -1.970011522053E-01
H24  1.420611913095E-02  1.227426122736E-02 -3.029988477947E-01
C25  1.237438165775E-01  3.849853029965E-01  1.741319032662E-01
C26 -1.237438165775E-01 -1.150146970035E-01  3.258680967338E-01
C27 -1.237438165775E-01 -3.849853029965E-01 -1.741319032662E-01
C28  1.237438165775E-01  1.150146970035E-01 -3.258680967338E-01
H29  1.093407549171E-01  2.962956318675E-01  5.635134543748E-02
H30 -1.093407549171E-01 -2.037043681325E-01  4.436486545625E-01
H31 -1.093407549171E-01 -2.962956318675E-01 -5.635134543748E-02
H32  1.093407549171E-01  2.037043681325E-01 -4.436486545625E-01
C33  1.957051025252E-01  3.893214830072E-01  2.482190555391E-01
C34 -1.957051025252E-01 -1.106785169928E-01  2.517809444609E-01
C35 -1.957051025252E-01 -3.893214830072E-01 -2.482190555391E-01
C36  1.957051025252E-01  1.106785169928E-01 -2.517809444609E-01
H37  2.356641456388E-01  3.018916994405E-01  1.891145805803E-01
H38 -2.356641456388E-01 -1.981083005595E-01  3.108854194197E-01
H39 -2.356641456388E-01 -3.018916994405E-01 -1.891145805803E-01
H40  2.356641456388E-01  1.981083005595E-01 -3.108854194197E-01
C41  2.167174211173E-01 -4.984112355480E-01  4.009894446233E-01
C42 -2.167174211173E-01  1.588764452020E-03  9.901055537667E-02
C43 -2.167174211173E-01  4.984112355480E-01 -4.009894446233E-01
C44  2.167174211173E-01 -1.588764452020E-03 -9.901055537667E-02
C45  2.937075931248E-01 -4.912206295568E-01  4.780866949353E-01
C46 -2.937075931248E-01  8.779370443247E-03  2.191330506466E-02
C47 -2.937075931248E-01  4.912206295568E-01 -4.780866949353E-01
C48  2.937075931248E-01 -8.779370443248E-03 -2.191330506466E-02
C49  3.084825516331E-01 -4.357071875443E-01 -3.184899888759E-01
C50 -3.084825516331E-01  6.429281245572E-02 -1.815100111241E-01
C51 -3.084825516331E-01  4.357071875443E-01  3.184899888759E-01
C52  3.084825516331E-01 -6.429281245572E-02  1.815100111241E-01
H53  2.626795328057E-01 -4.074025640638E-01 -2.190177530209E-01
H54 -2.626795328057E-01  9.259743593623E-02 -2.809822469791E-01
H55 -2.626795328057E-01  4.074025640638E-01  2.190177530209E-01
H56  2.626795328057E-01 -9.259743593623E-02  2.809822469791E-01
C57  3.787579778279E-01 -4.193229608764E-01 -2.467135317285E-01
C58 -3.787579778279E-01  8.067703912358E-02 -2.532864682715E-01
C59 -3.787579778279E-01  4.193229608764E-01  2.467135317285E-01
C60  3.787579778279E-01 -8.067703912358E-02  2.532864682715E-01
H61  3.884294450130E-01 -3.753202390253E-01 -9.286873306433E-02
H62 -3.884294450130E-01  1.246797609747E-01 -4.071312669357E-01
H63 -3.884294450130E-01  3.753202390253E-01  9.286873306433E-02
H64  3.884294450130E-01 -1.246797609747E-01  4.071312669357E-01
C65  4.407075270314E-01 -4.586305065123E-01 -3.707801361331E-01
C66 -4.407075270314E-01  4.136949348767E-02 -1.292198638669E-01
C67 -4.407075270314E-01  4.586305065123E-01  3.707801361331E-01
C68  4.407075270314E-01 -4.136949348767E-02  1.292198638669E-01
C69  4.268113620369E-01  4.805380569700E-01  4.266778362532E-01
C70 -4.268113620369E-01 -1.946194303001E-02  7.332216374680E-02
C71 -4.268113620369E-01 -4.805380569700E-01 -4.266778362532E-01
C72  4.268113620369E-01  1.946194303001E-02 -7.332216374680E-02
C73  3.525123661143E-01  4.668265428290E-01  3.572733536680E-01
C74 -3.525123661143E-01 -3.317345717102E-02  1.427266463320E-01
C75 -3.525123661143E-01 -4.668265428290E-01 -3.572733536680E-01
C76  3.525123661143E-01  3.317345717101E-02 -1.427266463320E-01
H77  3.433978069361E-01  4.266709219291E-01  2.015932384815E-01
H78 -3.433978069361E-01 -7.332907807091E-02  2.984067615185E-01
H79 -3.433978069361E-01 -4.266709219291E-01 -2.015932384815E-01
H80  3.433978069361E-01  7.332907807091E-02 -2.984067615185E-01
C81 -4.866932176371E-01 -4.400797804932E-01 -3.027471286575E-01
C82  4.866932176371E-01  5.992021950684E-02 -1.972528713425E-01
C83  4.866932176371E-01  4.400797804932E-01  3.027471286575E-01
C84 -4.866932176371E-01 -5.992021950684E-02  1.972528713425E-01
H85 -4.765262524514E-01 -3.933575376847E-01 -1.501489097541E-01
H86  4.765262524514E-01  1.066424623153E-01 -3.498510902459E-01
H87  4.765262524514E-01  3.933575376847E-01  1.501489097541E-01
H88 -4.765262524514E-01 -1.066424623153E-01  3.498510902459E-01


#===END

data_OPT_STEP_26

_symmetry_space_group_name_H-M 'P 1'
_cell_length_a     18.10912246
_cell_length_b      8.05341204
_cell_length_c      6.56765892
_cell_angle_alpha   90.000000
_cell_angle_beta   90.293041
_cell_angle_gamma   90.000000

loop_
_atom_site_label
_atom_site_fract_x
_atom_site_fract_y
_atom_site_fract_z
C1  1.625650241849E-01 -3.913364956707E-01  4.778062363191E-01
C2 -1.625650241849E-01  1.086635043293E-01  2.219376368088E-02
C3 -1.625650241849E-01  3.913364956707E-01 -4.778062363191E-01
C4  1.625650241849E-01 -1.086635043293E-01 -2.219376368088E-02
H5  1.767442813346E-01 -3.011967491904E-01 -4.061530858808E-01
H6 -1.767442813346E-01  1.988032508096E-01 -9.384691411923E-02
H7 -1.767442813346E-01  3.011967491904E-01  4.061530858808E-01
H8  1.767442813346E-01 -1.988032508096E-01  9.384691411923E-02
C9  9.048938370537E-02 -3.961531392358E-01  4.046585220401E-01
C10 -9.048938370537E-02  1.038468607642E-01  9.534147795988E-02
C11 -9.048938370537E-02  3.961531392358E-01 -4.046585220401E-01
C12  9.048938370537E-02 -1.038468607642E-01 -9.534147795988E-02
H13  4.975170710092E-02 -3.125748727240E-01  4.679970812157E-01
H14 -4.975170710092E-02  1.874251272760E-01  3.200291878428E-02
H15 -4.975170710092E-02  3.125748727240E-01 -4.679970812157E-01
H16  4.975170710092E-02 -1.874251272760E-01 -3.200291878428E-02
C17  7.059900487585E-02  4.918437224209E-01  2.527329786443E-01
C18 -7.059900487585E-02 -8.156277579093E-03  2.472670213557E-01
C19 -7.059900487585E-02 -4.918437224209E-01 -2.527329786443E-01
C20  7.059900487585E-02  8.156277579093E-03 -2.472670213557E-01
H21  1.416070764354E-02  4.874995111227E-01  1.972726911898E-01
H22 -1.416070764354E-02 -1.250048887729E-02  3.027273088102E-01
H23 -1.416070764354E-02 -4.874995111227E-01 -1.972726911898E-01
H24  1.416070764354E-02  1.250048887729E-02 -3.027273088102E-01
C25  1.236684248272E-01  3.844153892438E-01  1.747160798767E-01
C26 -1.236684248272E-01 -1.155846107562E-01  3.252839201233E-01
C27 -1.236684248272E-01 -3.844153892438E-01 -1.747160798767E-01
C28  1.236684248272E-01  1.155846107562E-01 -3.252839201233E-01
H29  1.092384735930E-01  2.955631068329E-01  5.714479363087E-02
H30 -1.092384735930E-01 -2.044368931671E-01  4.428552063691E-01
H31 -1.092384735930E-01 -2.955631068329E-01 -5.714479363087E-02
H32  1.092384735930E-01  2.044368931671E-01 -4.428552063691E-01
C33  1.956372336615E-01  3.887253965122E-01  2.487837625228E-01
C34 -1.956372336615E-01 -1.112746034878E-01  2.512162374772E-01
C35 -1.956372336615E-01 -3.887253965122E-01 -2.487837625228E-01
C36  1.956372336615E-01  1.112746034878E-01 -2.512162374772E-01
H37  2.355719290878E-01  3.010393499729E-01  1.899595547178E-01
H38 -2.355719290878E-01 -1.989606500271E-01  3.100404452822E-01
H39 -2.355719290878E-01 -3.010393499729E-01 -1.899595547178E-01
H40  2.355719290878E-01  1.989606500271E-01 -3.100404452822E-01
C41  2.166837374655E-01 -4.987922318077E-01  4.012837881002E-01
C42 -2.166837374655E-01  1.207768192261E-03  9.871621189976E-02
C43 -2.166837374655E-01  4.987922318077E-01 -4.012837881002E-01
C44  2.166837374655E-01 -1.207768192261E-03 -9.871621189976E-02
C45  2.936847674566E-01 -4.915819448505E-01  4.783299401927E-01
C46 -2.936847674566E-01  8.418055149536E-03  2.167005980726E-02
C47 -2.936847674566E-01  4.915819448505E-01 -4.783299401927E-01
C48  2.936847674566E-01 -8.418055149536E-03 -2.167005980726E-02
C49  3.084664519684E-01 -4.359122521845E-01 -3.183354064454E-01
C50 -3.084664519684E-01  6.408774781550E-02 -1.816645935546E-01
C51 -3.084664519684E-01  4.359122521845E-01  3.183354064454E-01
C52  3.084664519684E-01 -6.408774781550E-02  1.816645935546E-01
H53  2.626543020524E-01 -4.075815787437E-01 -2.188710378775E-01
H54 -2.626543020524E-01  9.241842125635E-02 -2.811289621225E-01
H55 -2.626543020524E-01  4.075815787437E-01  2.188710378775E-01
H56  2.626543020524E-01 -9.241842125635E-02  2.811289621225E-01
C57  3.787509444398E-01 -4.194710594496E-01 -2.466175055753E-01
C58 -3.787509444398E-01  8.052894055040E-02 -2.533824944247E-01
C59 -3.787509444398E-01  4.194710594496E-01  2.466175055753E-01
C60  3.787509444398E-01 -8.052894055040E-02  2.533824944247E-01
H61  3.884227765225E-01 -3.754731717808E-01 -9.279064538391E-02
H62 -3.884227765225E-01  1.245268282192E-01 -4.072093546161E-01
H63 -3.884227765225E-01  3.754731717808E-01  9.279064538391E-02
H64  3.884227765225E-01 -1.245268282192E-01  4.072093546161E-01
C65  4.407048269035E-01 -4.588049355888E-01 -3.706861842992E-01
C66 -4.407048269035E-01  4.119506441119E-02 -1.293138157008E-01
C67 -4.407048269035E-01  4.588049355888E-01  3.706861842992E-01
C68  4.407048269035E-01 -4.119506441119E-02  1.293138157008E-01
C69  4.268053759666E-01  4.803591460342E-01  4.267925817602E-01
C70 -4.268053759666E-01 -1.964085396583E-02  7.320741823981E-02
C71 -4.268053759666E-01 -4.803591460342E-01 -4.267925817602E-01
C72  4.268053759666E-01  1.964085396583E-02 -7.320741823981E-02
C73  3.524958004482E-01  4.665097202163E-01  3.574856460433E-01
C74 -3.524958004482E-01 -3.349027978368E-02  1.425143539567E-01
C75 -3.524958004482E-01 -4.665097202163E-01 -3.574856460433E-01
C76  3.524958004482E-01  3.349027978368E-02 -1.425143539567E-01
H77  3.433826375750E-01  4.263380891144E-01  2.018257625377E-01
H78 -3.433826375750E-01 -7.366191088562E-02  2.981742374623E-01
H79 -3.433826375750E-01 -4.263380891144E-01 -2.018257625377E-01
H80  3.433826375750E-01  7.366191088562E-02 -2.981742374623E-01
C81 -4.866892215252E-01 -4.401053875153E-01 -3.027545169384E-01
C82  4.866892215252E-01  5.989461248467E-02 -1.972454830616E-01
C83  4.866892215252E-01  4.401053875153E-01  3.027545169384E-01
C84 -4.866892215252E-01 -5.989461248467E-02  1.972454830616E-01
H85 -4.765215373838E-01 -3.932505306005E-01 -1.502341999587E-01
H86  4.765215373838E-01  1.067494693995E-01 -3.497658000413E-01
H87  4.765215373838E-01  3.932505306005E-01  1.502341999587E-01
H88 -4.765215373838E-01 -1.067494693995E-01  3.497658000413E-01


#===END

data_OPT_STEP_27

_symmetry_space_group_name_H-M 'P 1'
_cell_length_a     18.10553122
_cell_length_b      8.05994243
_cell_length_c      6.56897606
_cell_angle_alpha   90.000000
_cell_angle_beta   90.288616
_cell_angle_gamma   90.000000

loop_
_atom_site_label
_atom_site_fract_x
_atom_site_fract_y
_atom_site_fract_z
C1  1.625236413637E-01 -3.907753934030E-01  4.775125383655E-01
C2 -1.625236413637E-01  1.092246065970E-01  2.248746163447E-02
C3 -1.625236413637E-01  3.907753934030E-01 -4.775125383655E-01
C4  1.625236413637E-01 -1.092246065970E-01 -2.248746163447E-02
H5  1.767581002962E-01 -3.002215968079E-01 -4.070374415437E-01
H6 -1.767581002962E-01  1.997784031921E-01 -9.296255845626E-02
H7 -1.767581002962E-01  3.002215968079E-01  4.070374415437E-01
H8  1.767581002962E-01 -1.997784031921E-01  9.296255845626E-02
C9  9.040088927053E-02 -3.959899510896E-01  4.046817776015E-01
C10 -9.040088927053E-02  1.040100489104E-01  9.531822239848E-02
C11 -9.040088927053E-02  3.959899510896E-01 -4.046817776015E-01
C12  9.040088927053E-02 -1.040100489104E-01 -9.531822239848E-02
H13  4.968262770444E-02 -3.121669054836E-01  4.675814380098E-01
H14 -4.968262770444E-02  1.878330945164E-01  3.241856199020E-02
H15 -4.968262770444E-02  3.121669054836E-01 -4.675814380098E-01
H16  4.968262770444E-02 -1.878330945164E-01 -3.241856199020E-02
C17  7.044135923334E-02  4.914118341531E-01  2.535171972309E-01
C18 -7.044135923334E-02 -8.588165846860E-03  2.464828027691E-01
C19 -7.044135923334E-02 -4.914118341531E-01 -2.535171972309E-01
C20  7.044135923334E-02  8.588165846860E-03 -2.464828027691E-01
H21  1.400160524459E-02  4.870868947433E-01  1.979996840983E-01
H22 -1.400160524459E-02 -1.291310525671E-02  3.020003159017E-01
H23 -1.400160524459E-02 -4.870868947433E-01 -1.979996840983E-01
H24  1.400160524459E-02  1.291310525671E-02 -3.020003159017E-01
C25  1.234828474787E-01  3.837784424131E-01  1.759757359473E-01
C26 -1.234828474787E-01 -1.162215575869E-01  3.240242640527E-01
C27 -1.234828474787E-01 -3.837784424131E-01 -1.759757359473E-01
C28  1.234828474787E-01  1.162215575869E-01 -3.240242640527E-01
H29  1.090223118693E-01  2.947029897570E-01  5.883128036168E-02
H30 -1.090223118693E-01 -2.052970102430E-01  4.411687196383E-01
H31 -1.090223118693E-01 -2.947029897570E-01 -5.883128036168E-02
H32  1.090223118693E-01  2.052970102430E-01 -4.411687196383E-01
C33  1.954949938012E-01  3.884358117894E-01  2.497754747529E-01
C34 -1.954949938012E-01 -1.115641882106E-01  2.502245252471E-01
C35 -1.954949938012E-01 -3.884358117894E-01 -2.497754747529E-01
C36  1.954949938012E-01  1.115641882106E-01 -2.502245252471E-01
H37  2.354265524239E-01  3.006920971917E-01  1.913128647706E-01
H38 -2.354265524239E-01 -1.993079028083E-01  3.086871352294E-01
H39 -2.354265524239E-01 -3.006920971917E-01 -1.913128647706E-01
H40  2.354265524239E-01  1.993079028083E-01 -3.086871352294E-01
C41  2.166083306056E-01 -4.984790123146E-01  4.014904538178E-01
C42 -2.166083306056E-01  1.520987685382E-03  9.850954618220E-02
C43 -2.166083306056E-01  4.984790123146E-01 -4.014904538178E-01
C44  2.166083306056E-01 -1.520987685383E-03 -9.850954618220E-02
C45  2.936406159742E-01 -4.910082769062E-01  4.783372637939E-01
C46 -2.936406159742E-01  8.991723093822E-03  2.166273620615E-02
C47 -2.936406159742E-01  4.910082769062E-01 -4.783372637939E-01
C48  2.936406159742E-01 -8.991723093823E-03 -2.166273620615E-02
C49  3.084545484915E-01 -4.349387104982E-01 -3.185698881549E-01
C50 -3.084545484915E-01  6.506128950184E-02 -1.814301118451E-01
C51 -3.084545484915E-01  4.349387104982E-01  3.185698881549E-01
C52  3.084545484915E-01 -6.506128950184E-02  1.814301118451E-01
H53  2.626310774203E-01 -4.067052500261E-01 -2.190636684725E-01
H54 -2.626310774203E-01  9.329474997386E-02 -2.809363315275E-01
H55 -2.626310774203E-01  4.067052500261E-01  2.190636684725E-01
H56  2.626310774203E-01 -9.329474997386E-02  2.809363315275E-01
C57  3.787608989418E-01 -4.186525102715E-01 -2.468934967476E-01
C58 -3.787608989418E-01  8.134748972852E-02 -2.531065032524E-01
C59 -3.787608989418E-01  4.186525102715E-01  2.468934967476E-01
C60  3.787608989418E-01 -8.134748972852E-02  2.531065032524E-01
H61  3.884456958857E-01 -3.746889560310E-01 -9.312439697699E-02
H62 -3.884456958857E-01  1.253110439690E-01 -4.068756030230E-01
H63 -3.884456958857E-01  3.746889560310E-01  9.312439697699E-02
H64  3.884456958857E-01 -1.253110439690E-01  4.068756030230E-01
C65  4.407102114711E-01 -4.585134109229E-01 -3.707733776768E-01
C66 -4.407102114711E-01  4.148658907706E-02 -1.292266223232E-01
C67 -4.407102114711E-01  4.585134109229E-01  3.707733776768E-01
C68  4.407102114711E-01 -4.148658907706E-02  1.292266223232E-01
C69  4.267788930224E-01  4.808484996209E-01  4.266831887888E-01
C70 -4.267788930224E-01 -1.915150037906E-02  7.331681121123E-02
C71 -4.267788930224E-01 -4.808484996209E-01 -4.266831887888E-01
C72  4.267788930224E-01  1.915150037906E-02 -7.331681121123E-02
C73  3.524450013074E-01  4.670382230659E-01  3.574738288727E-01
C74 -3.524450013074E-01 -3.296177693415E-02  1.425261711273E-01
C75 -3.524450013074E-01 -4.670382230659E-01 -3.574738288727E-01
C76  3.524450013074E-01  3.296177693415E-02 -1.425261711273E-01
H77  3.433187776826E-01  4.268880423770E-01  2.018666287536E-01
H78 -3.433187776826E-01 -7.311195762300E-02  2.981333712464E-01
H79 -3.433187776826E-01 -4.268880423770E-01 -2.018666287536E-01
H80  3.433187776826E-01  7.311195762300E-02 -2.981333712464E-01
C81 -4.866546574516E-01 -4.404354765001E-01 -3.026689048837E-01
C82  4.866546574516E-01  5.956452349990E-02 -1.973310951163E-01
C83  4.866546574516E-01  4.404354765001E-01  3.026689048837E-01
C84 -4.866546574516E-01 -5.956452349990E-02  1.973310951163E-01
H85 -4.764686739086E-01 -3.937615213041E-01 -1.501290918391E-01
H86  4.764686739086E-01  1.062384786959E-01 -3.498709081609E-01
H87  4.764686739086E-01  3.937615213041E-01  1.501290918391E-01
H88 -4.764686739086E-01 -1.062384786959E-01  3.498709081609E-01


#===END

data_OPT_STEP_28

_symmetry_space_group_name_H-M 'P 1'
_cell_length_a     18.09885239
_cell_length_b      8.06464745
_cell_length_c      6.57176467
_cell_angle_alpha   90.000000
_cell_angle_beta   90.266623
_cell_angle_gamma   90.000000

loop_
_atom_site_label
_atom_site_fract_x
_atom_site_fract_y
_atom_site_fract_z
C1  1.624691729080E-01 -3.904003782738E-01  4.771378359332E-01
C2 -1.624691729080E-01  1.095996217262E-01  2.286216406682E-02
C3 -1.624691729080E-01  3.904003782738E-01 -4.771378359332E-01
C4  1.624691729080E-01 -1.095996217262E-01 -2.286216406682E-02
H5  1.767858167780E-01 -2.992639645410E-01 -4.081968425069E-01
H6 -1.767858167780E-01  2.007360354590E-01 -9.180315749309E-02
H7 -1.767858167780E-01  2.992639645410E-01  4.081968425069E-01
H8  1.767858167780E-01 -2.007360354590E-01  9.180315749309E-02
C9  9.030383155474E-02 -3.957965382505E-01  4.045441873450E-01
C10 -9.030383155474E-02  1.042034617495E-01  9.545581265502E-02
C11 -9.030383155474E-02  3.957965382505E-01 -4.045441873450E-01
C12  9.030383155474E-02 -1.042034617495E-01 -9.545581265502E-02
H13  4.961108679069E-02 -3.116504714731E-01  4.670002514404E-01
H14 -4.961108679069E-02  1.883495285269E-01  3.299974855958E-02
H15 -4.961108679069E-02  3.116504714731E-01 -4.670002514404E-01
H16  4.961108679069E-02 -1.883495285269E-01 -3.299974855958E-02
C17  7.028399713190E-02  4.911651096013E-01  2.540595337096E-01
C18 -7.028399713190E-02 -8.834890398710E-03  2.459404662904E-01
C19 -7.028399713190E-02 -4.911651096013E-01 -2.540595337096E-01
C20  7.028399713190E-02  8.834890398709E-03 -2.459404662904E-01
H21  1.382584057678E-02  4.867924943047E-01  1.986016037519E-01
H22 -1.382584057678E-02 -1.320750569532E-02  3.013983962481E-01
H23 -1.382584057678E-02 -4.867924943047E-01 -1.986016037519E-01
H24  1.382584057678E-02  1.320750569532E-02 -3.013983962481E-01
C25  1.232930116306E-01  3.831899041548E-01  1.770761102426E-01
C26 -1.232930116306E-01 -1.168100958452E-01  3.229238897574E-01
C27 -1.232930116306E-01 -3.831899041548E-01 -1.770761102426E-01
C28  1.232930116306E-01  1.168100958452E-01 -3.229238897574E-01
H29  1.087587513666E-01  2.935317885376E-01  6.072526651961E-02
H30 -1.087587513666E-01 -2.064682114624E-01  4.392747334804E-01
H31 -1.087587513666E-01 -2.935317885376E-01 -6.072526651961E-02
H32  1.087587513666E-01  2.064682114624E-01 -4.392747334804E-01
C33  1.953233250611E-01  3.877981328238E-01  2.508595702709E-01
C34 -1.953233250611E-01 -1.122018671762E-01  2.491404297291E-01
C35 -1.953233250611E-01 -3.877981328238E-01 -2.508595702709E-01
C36  1.953233250611E-01  1.122018671762E-01 -2.491404297291E-01
H37  2.352264968742E-01  2.997599678072E-01  1.929671907431E-01
H38 -2.352264968742E-01 -2.002400321928E-01  3.070328092569E-01
H39 -2.352264968742E-01 -2.997599678072E-01 -1.929671907431E-01
H40  2.352264968742E-01  2.002400321928E-01 -3.070328092569E-01
C41  2.165072356633E-01 -4.985427045506E-01  4.017435774548E-01
C42 -2.165072356633E-01  1.457295449361E-03  9.825642254518E-02
C43 -2.165072356633E-01  4.985427045506E-01 -4.017435774548E-01
C44  2.165072356633E-01 -1.457295449361E-03 -9.825642254518E-02
C45  2.935661132404E-01 -4.910342235354E-01  4.784705297719E-01
C46 -2.935661132404E-01  8.965776464587E-03  2.152947022814E-02
C47 -2.935661132404E-01  4.910342235354E-01 -4.784705297719E-01
C48  2.935661132404E-01 -8.965776464587E-03 -2.152947022814E-02
C49  3.083684739177E-01 -4.351590881315E-01 -3.184768600111E-01
C50 -3.083684739177E-01  6.484091186846E-02 -1.815231399889E-01
C51 -3.083684739177E-01  4.351590881315E-01  3.184768600111E-01
C52  3.083684739177E-01 -6.484091186846E-02  1.815231399889E-01
H53  2.625112033447E-01 -4.066781513188E-01 -2.191158592100E-01
H54 -2.625112033447E-01  9.332184868115E-02 -2.808841407900E-01
H55 -2.625112033447E-01  4.066781513188E-01  2.191158592100E-01
H56  2.625112033447E-01 -9.332184868116E-02  2.808841407900E-01
C57  3.786982239796E-01 -4.189801290962E-01 -2.468347565335E-01
C58 -3.786982239796E-01  8.101987090380E-02 -2.531652434665E-01
C59 -3.786982239796E-01  4.189801290962E-01  2.468347565335E-01
C60  3.786982239796E-01 -8.101987090380E-02  2.531652434665E-01
H61  3.883811812150E-01 -3.748835952068E-01 -9.321144393193E-02
H62 -3.883811812150E-01  1.251164047932E-01 -4.067885560681E-01
H63 -3.883811812150E-01  3.748835952068E-01  9.321144393193E-02
H64  3.883811812150E-01 -1.251164047932E-01  4.067885560681E-01
C65  4.406778072607E-01 -4.585994889851E-01 -3.707818716746E-01
C66 -4.406778072607E-01  4.140051101489E-02 -1.292181283254E-01
C67 -4.406778072607E-01  4.585994889851E-01  3.707818716746E-01
C68  4.406778072607E-01 -4.140051101489E-02  1.292181283254E-01
C69  4.267553976979E-01  4.807683894065E-01  4.267774673792E-01
C70 -4.267553976979E-01 -1.923161059348E-02  7.322253262079E-02
C71 -4.267553976979E-01 -4.807683894065E-01 -4.267774673792E-01
C72  4.267553976979E-01  1.923161059348E-02 -7.322253262079E-02
C73  3.523925460673E-01  4.668652641421E-01  3.576896341434E-01
C74 -3.523925460673E-01 -3.313473585786E-02  1.423103658566E-01
C75 -3.523925460673E-01 -4.668652641421E-01 -3.576896341434E-01
C76  3.523925460673E-01  3.313473585786E-02 -1.423103658566E-01
H77  3.432692612718E-01  4.265748324584E-01  2.022356886935E-01
H78 -3.432692612718E-01 -7.342516754156E-02  2.977643113065E-01
H79 -3.432692612718E-01 -4.265748324584E-01 -2.022356886935E-01
H80  3.432692612718E-01  7.342516754156E-02 -2.977643113065E-01
C81 -4.866636962515E-01 -4.404440527118E-01 -3.027643145646E-01
C82  4.866636962515E-01  5.955594728820E-02 -1.972356854354E-01
C83  4.866636962515E-01  4.404440527118E-01  3.027643145646E-01
C84 -4.866636962515E-01 -5.955594728820E-02  1.972356854354E-01
H85 -4.764916796392E-01 -3.936544077234E-01 -1.503550744245E-01
H86  4.764916796392E-01  1.063455922766E-01 -3.496449255755E-01
H87  4.764916796392E-01  3.936544077234E-01  1.503550744245E-01
H88 -4.764916796392E-01 -1.063455922766E-01  3.496449255755E-01


#===END

data_OPT_STEP_29

_symmetry_space_group_name_H-M 'P 1'
_cell_length_a     18.08153333
_cell_length_b      8.08036829
_cell_length_c      6.57607000
_cell_angle_alpha   90.000000
_cell_angle_beta   90.169333
_cell_angle_gamma   90.000000

loop_
_atom_site_label
_atom_site_fract_x
_atom_site_fract_y
_atom_site_fract_z
C1  1.622962641735E-01 -3.890568177314E-01  4.758736448114E-01
C2 -1.622962641735E-01  1.109431822686E-01  2.412635518859E-02
C3 -1.622962641735E-01  3.890568177314E-01 -4.758736448114E-01
C4  1.622962641735E-01 -1.109431822686E-01 -2.412635518859E-02
H5  1.766780877668E-01 -2.973725299731E-01 -4.104776479011E-01
H6 -1.766780877668E-01  2.026274700269E-01 -8.952235209888E-02
H7 -1.766780877668E-01  2.973725299731E-01  4.104776479011E-01
H8  1.766780877668E-01 -2.026274700269E-01  8.952235209888E-02
C9  9.006957645226E-02 -3.947021052191E-01  4.036172614754E-01
C10 -9.006957645226E-02  1.052978947809E-01  9.638273852460E-02
C11 -9.006957645226E-02  3.947021052191E-01 -4.036172614754E-01
C12  9.006957645226E-02 -1.052978947809E-01 -9.638273852460E-02
H13  4.937239459994E-02 -3.102121059819E-01  4.653832024770E-01
H14 -4.937239459994E-02  1.897878940181E-01  3.461679752301E-02
H15 -4.937239459994E-02  3.102121059819E-01 -4.653832024770E-01
H16  4.937239459994E-02 -1.897878940181E-01 -3.461679752301E-02
C17  7.001778822954E-02  4.916990350770E-01  2.542773459067E-01
C18 -7.001778822954E-02 -8.300964923048E-03  2.457226540933E-01
C19 -7.001778822954E-02 -4.916990350770E-01 -2.542773459067E-01
C20  7.001778822954E-02  8.300964923048E-03 -2.457226540933E-01
H21  1.349604987110E-02  4.868710544142E-01  1.992733229842E-01
H22 -1.349604987110E-02 -1.312894558583E-02  3.007266770158E-01
H23 -1.349604987110E-02 -4.868710544142E-01 -1.992733229842E-01
H24  1.349604987110E-02  1.312894558583E-02 -3.007266770158E-01
C25  1.230280303049E-01  3.832405062325E-01  1.782721408260E-01
C26 -1.230280303049E-01 -1.167594937675E-01  3.217278591740E-01
C27 -1.230280303049E-01 -3.832405062325E-01 -1.782721408260E-01
C28  1.230280303049E-01  1.167594937675E-01 -3.217278591740E-01
H29  1.084427500671E-01  2.930191673867E-01  6.298822282945E-02
H30 -1.084427500671E-01 -2.069808326133E-01  4.370117771705E-01
H31 -1.084427500671E-01 -2.930191673867E-01 -6.298822282945E-02
H32  1.084427500671E-01  2.069808326133E-01 -4.370117771705E-01
C33  1.951079006286E-01  3.879853154212E-01  2.518234494089E-01
C34 -1.951079006286E-01 -1.120146845788E-01  2.481765505911E-01
C35 -1.951079006286E-01 -3.879853154212E-01 -2.518234494089E-01
C36  1.951079006286E-01  1.120146845788E-01 -2.481765505911E-01
H37  2.349459597558E-01  2.990605038748E-01  1.953426024138E-01
H38 -2.349459597558E-01 -2.009394961252E-01  3.046573975862E-01
H39 -2.349459597558E-01 -2.990605038748E-01 -1.953426024138E-01
H40  2.349459597558E-01  2.009394961252E-01 -3.046573975862E-01
C41  2.163158033441E-01 -4.977959086202E-01  4.015243612102E-01
C42 -2.163158033441E-01  2.204091379756E-03  9.847563878979E-02
C43 -2.163158033441E-01  4.977959086202E-01 -4.015243612102E-01
C44  2.163158033441E-01 -2.204091379756E-03 -9.847563878979E-02
C45  2.933791129085E-01 -4.906112382693E-01  4.783343311725E-01
C46 -2.933791129085E-01  9.388761730706E-03  2.166566882750E-02
C47 -2.933791129085E-01  4.906112382693E-01 -4.783343311725E-01
C48  2.933791129085E-01 -9.388761730706E-03 -2.166566882750E-02
C49  3.080751849083E-01 -4.345734745493E-01 -3.188764113347E-01
C50 -3.080751849083E-01  6.542652545069E-02 -1.811235886653E-01
C51 -3.080751849083E-01  4.345734745493E-01  3.188764113347E-01
C52  3.080751849083E-01 -6.542652545069E-02  1.811235886653E-01
H53  2.621124584265E-01 -4.053414182637E-01 -2.199419851826E-01
H54 -2.621124584265E-01  9.465858173629E-02 -2.800580148174E-01
H55 -2.621124584265E-01  4.053414182637E-01  2.199419851826E-01
H56  2.621124584265E-01 -9.465858173629E-02  2.800580148174E-01
C57  3.784347859913E-01 -4.184690774953E-01 -2.472702850634E-01
C58 -3.784347859913E-01  8.153092250468E-02 -2.527297149366E-01
C59 -3.784347859913E-01  4.184690774953E-01  2.472702850634E-01
C60  3.784347859913E-01 -8.153092250468E-02  2.527297149366E-01
H61  3.880642195528E-01 -3.741379760239E-01 -9.389647895008E-02
H62 -3.880642195528E-01  1.258620239761E-01 -4.061035210499E-01
H63 -3.880642195528E-01  3.741379760239E-01  9.389647895008E-02
H64  3.880642195528E-01 -1.258620239761E-01  4.061035210499E-01
C65  4.405441880773E-01 -4.586169753447E-01 -3.708991563496E-01
C66 -4.405441880773E-01  4.138302465531E-02 -1.291008436504E-01
C67 -4.405441880773E-01  4.586169753447E-01  3.708991563496E-01
C68  4.405441880773E-01 -4.138302465531E-02  1.291008436504E-01
C69  4.267172958190E-01  4.808948458776E-01  4.267928391420E-01
C70 -4.267172958190E-01 -1.910515412239E-02  7.320716085798E-02
C71 -4.267172958190E-01 -4.808948458776E-01 -4.267928391420E-01
C72  4.267172958190E-01  1.910515412239E-02 -7.320716085798E-02
C73  3.523183707136E-01  4.672636344390E-01  3.576527935787E-01
C74 -3.523183707136E-01 -3.273636556099E-02  1.423472064213E-01
C75 -3.523183707136E-01 -4.672636344390E-01 -3.576527935787E-01
C76  3.523183707136E-01  3.273636556099E-02 -1.423472064213E-01
H77  3.432378768279E-01  4.268174061057E-01  2.024273493333E-01
H78 -3.432378768279E-01 -7.318259389426E-02  2.975726506667E-01
H79 -3.432378768279E-01 -4.268174061057E-01 -2.024273493333E-01
H80  3.432378768279E-01  7.318259389426E-02 -2.975726506667E-01
C81 -4.867592785863E-01 -4.405083847323E-01 -3.029363417196E-01
C82  4.867592785863E-01  5.949161526773E-02 -1.970636582804E-01
C83  4.867592785863E-01  4.405083847323E-01  3.029363417196E-01
C84 -4.867592785863E-01 -5.949161526773E-02  1.970636582804E-01
H85 -4.766601477400E-01 -3.938681173596E-01 -1.506037459886E-01
H86  4.766601477400E-01  1.061318826404E-01 -3.493962540114E-01
H87  4.766601477400E-01  3.938681173596E-01  1.506037459886E-01
H88 -4.766601477400E-01 -1.061318826404E-01  3.493962540114E-01


#===END

data_OPT_STEP_30

_symmetry_space_group_name_H-M 'P 1'
_cell_length_a     18.08259517
_cell_length_b      8.07647007
_cell_length_c      6.57777193
_cell_angle_alpha   90.000000
_cell_angle_beta   90.296480
_cell_angle_gamma   90.000000

loop_
_atom_site_label
_atom_site_fract_x
_atom_site_fract_y
_atom_site_fract_z
C1  1.624706129763E-01 -3.886396312088E-01  4.752510166545E-01
C2 -1.624706129763E-01  1.113603687912E-01  2.474898334546E-02
C3 -1.624706129763E-01  3.886396312088E-01 -4.752510166545E-01
C4  1.624706129763E-01 -1.113603687912E-01 -2.474898334546E-02
H5  1.771074442920E-01 -2.962503695553E-01 -4.121083565523E-01
H6 -1.771074442920E-01  2.037496304447E-01 -8.789164344773E-02
H7 -1.771074442920E-01  2.962503695553E-01  4.121083565523E-01
H8  1.771074442920E-01 -2.037496304447E-01  8.789164344773E-02
C9  9.017648386122E-02 -3.942949521081E-01  4.031651037851E-01
C10 -9.017648386122E-02  1.057050478919E-01  9.683489621494E-02
C11 -9.017648386122E-02  3.942949521081E-01 -4.031651037851E-01
C12  9.017648386122E-02 -1.057050478919E-01 -9.683489621494E-02
H13  4.961716640014E-02 -3.091836149188E-01  4.640418249779E-01
H14 -4.961716640014E-02  1.908163850812E-01  3.595817502210E-02
H15 -4.961716640014E-02  3.091836149188E-01 -4.640418249779E-01
H16  4.961716640014E-02 -1.908163850812E-01 -3.595817502210E-02
C17  6.982664316696E-02  4.912110042731E-01  2.550728385209E-01
C18 -6.982664316696E-02 -8.788995726925E-03  2.449271614791E-01
C19 -6.982664316696E-02 -4.912110042731E-01 -2.550728385209E-01
C20  6.982664316696E-02  8.788995726925E-03 -2.449271614791E-01
H21  1.322235379763E-02  4.863441473388E-01  2.003968768285E-01
H22 -1.322235379763E-02 -1.365585266122E-02  2.996031231715E-01
H23 -1.322235379763E-02 -4.863441473388E-01 -2.003968768285E-01
H24  1.322235379763E-02  1.365585266122E-02 -2.996031231715E-01
C25  1.226118907158E-01  3.819556996327E-01  1.800178131958E-01
C26 -1.226118907158E-01 -1.180443003673E-01  3.199821868042E-01
C27 -1.226118907158E-01 -3.819556996327E-01 -1.800178131958E-01
C28  1.226118907158E-01  1.180443003673E-01 -3.199821868042E-01
H29  1.077931948859E-01  2.910902009392E-01  6.570189063173E-02
H30 -1.077931948859E-01 -2.089097990608E-01  4.342981093683E-01
H31 -1.077931948859E-01 -2.910902009392E-01 -6.570189063173E-02
H32  1.077931948859E-01  2.089097990608E-01 -4.342981093683E-01
C33  1.947851977830E-01  3.868281174846E-01  2.532762858704E-01
C34 -1.947851977830E-01 -1.131718825154E-01  2.467237141296E-01
C35 -1.947851977830E-01 -3.868281174846E-01 -2.532762858704E-01
C36  1.947851977830E-01  1.131718825154E-01 -2.467237141296E-01
H37  2.345279120907E-01  2.976898101283E-01  1.973637076009E-01
H38 -2.345279120907E-01 -2.023101898717E-01  3.026362923991E-01
H39 -2.345279120907E-01 -2.976898101283E-01 -1.973637076009E-01
H40  2.345279120907E-01  2.023101898717E-01 -3.026362923991E-01
C41  2.162722593758E-01 -4.981310905677E-01  4.018154899506E-01
C42 -2.162722593758E-01  1.868909432343E-03  9.818451004941E-02
C43 -2.162722593758E-01  4.981310905677E-01 -4.018154899506E-01
C44  2.162722593758E-01 -1.868909432343E-03 -9.818451004941E-02
C45  2.934099671512E-01 -4.908415146648E-01  4.784879352860E-01
C46 -2.934099671512E-01  9.158485335218E-03  2.151206471395E-02
C47 -2.934099671512E-01  4.908415146648E-01 -4.784879352860E-01
C48  2.934099671512E-01 -9.158485335218E-03 -2.151206471395E-02
C49  3.082665780268E-01 -4.345889281635E-01 -3.188393595292E-01
C50 -3.082665780268E-01  6.541107183648E-02 -1.811606404708E-01
C51 -3.082665780268E-01  4.345889281635E-01  3.188393595292E-01
C52  3.082665780268E-01 -6.541107183648E-02  1.811606404708E-01
H53  2.623468776566E-01 -4.053982205715E-01 -2.199592575744E-01
H54 -2.623468776566E-01  9.460177942854E-02 -2.800407424256E-01
H55 -2.623468776566E-01  4.053982205715E-01  2.199592575744E-01
H56  2.623468776566E-01 -9.460177942854E-02  2.800407424256E-01
C57  3.786763180424E-01 -4.185044398077E-01 -2.472215924299E-01
C58 -3.786763180424E-01  8.149556019234E-02 -2.527784075701E-01
C59 -3.786763180424E-01  4.185044398077E-01  2.472215924299E-01
C60  3.786763180424E-01 -8.149556019234E-02  2.527784075701E-01
H61  3.884241100248E-01 -3.743005525065E-01 -9.382557022407E-02
H62 -3.884241100248E-01  1.256994474935E-01 -4.061744297759E-01
H63 -3.884241100248E-01  3.743005525065E-01  9.382557022407E-02
H64  3.884241100248E-01 -1.256994474935E-01  4.061744297759E-01
C65  4.406622202590E-01 -4.585469214968E-01 -3.709271763831E-01
C66 -4.406622202590E-01  4.145307850316E-02 -1.290728236169E-01
C67 -4.406622202590E-01  4.585469214968E-01  3.709271763831E-01
C68  4.406622202590E-01 -4.145307850316E-02  1.290728236169E-01
C69  4.266701076249E-01  4.803186426420E-01  4.270793940102E-01
C70 -4.266701076249E-01 -1.968135735797E-02  7.292060598976E-02
C71 -4.266701076249E-01 -4.803186426420E-01 -4.270793940102E-01
C72  4.266701076249E-01  1.968135735797E-02 -7.292060598976E-02
C73  3.522177607919E-01  4.663173128707E-01  3.581039718430E-01
C74 -3.522177607919E-01 -3.368268712934E-02  1.418960281570E-01
C75 -3.522177607919E-01 -4.663173128707E-01 -3.581039718430E-01
C76  3.522177607919E-01  3.368268712934E-02 -1.418960281570E-01
H77  3.430142717996E-01  4.259110808984E-01  2.028509032313E-01
H78 -3.430142717996E-01 -7.408891910163E-02  2.971490967687E-01
H79 -3.430142717996E-01 -4.259110808984E-01 -2.028509032313E-01
H80  3.430142717996E-01  7.408891910163E-02 -2.971490967687E-01
C81 -4.865949778389E-01 -4.400368561442E-01 -3.031841897160E-01
C82  4.865949778389E-01  5.996314385577E-02 -1.968158102840E-01
C83  4.865949778389E-01  4.400368561442E-01  3.031841897160E-01
C84 -4.865949778389E-01 -5.996314385577E-02  1.968158102840E-01
H85 -4.763813985485E-01 -3.926809203345E-01 -1.512087479217E-01
H86  4.763813985485E-01  1.073190796655E-01 -3.487912520783E-01
H87  4.763813985485E-01  3.926809203345E-01  1.512087479217E-01
H88 -4.763813985485E-01 -1.073190796655E-01  3.487912520783E-01


#===END

data_OPT_STEP_31

_symmetry_space_group_name_H-M 'P 1'
_cell_length_a     18.08870907
_cell_length_b      8.07018214
_cell_length_c      6.58128191
_cell_angle_alpha   90.000000
_cell_angle_beta   90.499749
_cell_angle_gamma   90.000000

loop_
_atom_site_label
_atom_site_fract_x
_atom_site_fract_y
_atom_site_fract_z
C1  1.626751446200E-01 -3.886734592174E-01  4.750813436294E-01
C2 -1.626751446200E-01  1.113265407826E-01  2.491865637059E-02
C3 -1.626751446200E-01  3.886734592174E-01 -4.750813436294E-01
C4  1.626751446200E-01 -1.113265407826E-01 -2.491865637059E-02
H5  1.775444294077E-01 -2.962983631545E-01 -4.125791248296E-01
H6 -1.775444294077E-01  2.037016368455E-01 -8.742087517043E-02
H7 -1.775444294077E-01  2.962983631545E-01  4.125791248296E-01
H8  1.775444294077E-01 -2.037016368455E-01  8.742087517043E-02
C9  9.031299208528E-02 -3.941659466533E-01  4.030660538435E-01
C10 -9.031299208528E-02  1.058340533467E-01  9.693394615650E-02
C11 -9.031299208528E-02  3.941659466533E-01 -4.030660538435E-01
C12  9.031299208528E-02 -1.058340533467E-01 -9.693394615650E-02
H13  4.997722504353E-02 -3.083224828533E-01  4.630865573471E-01
H14 -4.997722504353E-02  1.916775171467E-01  3.691344265287E-02
H15 -4.997722504353E-02  3.083224828533E-01 -4.630865573471E-01
H16  4.997722504353E-02 -1.916775171467E-01 -3.691344265287E-02
C17  6.959191037245E-02  4.904367604424E-01  2.561236802246E-01
C18 -6.959191037245E-02 -9.563239557601E-03  2.438763197754E-01
C19 -6.959191037245E-02 -4.904367604424E-01 -2.561236802246E-01
C20  6.959191037245E-02  9.563239557600E-03 -2.438763197754E-01
H21  1.294227848412E-02  4.858201289835E-01  2.014392810701E-01
H22 -1.294227848412E-02 -1.417987101651E-02  2.985607189299E-01
H23 -1.294227848412E-02 -4.858201289835E-01 -2.014392810701E-01
H24  1.294227848412E-02  1.417987101651E-02 -2.985607189299E-01
C25  1.221226639877E-01  3.805779158806E-01  1.817425234591E-01
C26 -1.221226639877E-01 -1.194220841194E-01  3.182574765409E-01
C27 -1.221226639877E-01 -3.805779158806E-01 -1.817425234591E-01
C28  1.221226639877E-01  1.194220841194E-01 -3.182574765409E-01
H29  1.069801500739E-01  2.887390288986E-01  6.861575583160E-02
H30 -1.069801500739E-01 -2.112609711014E-01  4.313842441684E-01
H31 -1.069801500739E-01 -2.887390288986E-01 -6.861575583160E-02
H32  1.069801500739E-01  2.112609711014E-01 -4.313842441684E-01
C33  1.943872116126E-01  3.854271415947E-01  2.547764114061E-01
C34 -1.943872116126E-01 -1.145728584053E-01  2.452235885939E-01
C35 -1.943872116126E-01 -3.854271415947E-01 -2.547764114061E-01
C36  1.943872116126E-01  1.145728584053E-01 -2.452235885939E-01
H37  2.339549014358E-01  2.957626831975E-01  1.995258587419E-01
H38 -2.339549014358E-01 -2.042373168025E-01  3.004741412581E-01
H39 -2.339549014358E-01 -2.957626831975E-01 -1.995258587419E-01
H40  2.339549014358E-01  2.042373168025E-01 -3.004741412581E-01
C41  2.162089387103E-01 -4.988879985528E-01  4.024111230303E-01
C42 -2.162089387103E-01  1.112001447166E-03  9.758887696974E-02
C43 -2.162089387103E-01  4.988879985528E-01 -4.024111230303E-01
C44  2.162089387103E-01 -1.112001447166E-03 -9.758887696974E-02
C45  2.934605125556E-01 -4.912616591434E-01  4.786834980571E-01
C46 -2.934605125556E-01  8.738340856612E-03  2.131650194287E-02
C47 -2.934605125556E-01  4.912616591434E-01 -4.786834980571E-01
C48  2.934605125556E-01 -8.738340856612E-03 -2.131650194287E-02
C49  3.085766698937E-01 -4.352710559204E-01 -3.186420133120E-01
C50 -3.085766698937E-01  6.472894407960E-02 -1.813579866880E-01
C51 -3.085766698937E-01  4.352710559204E-01  3.186420133120E-01
C52  3.085766698937E-01 -6.472894407960E-02  1.813579866880E-01
H53  2.627751618504E-01 -4.070029392711E-01 -2.194802170689E-01
H54 -2.627751618504E-01  9.299706072885E-02 -2.805197829311E-01
H55 -2.627751618504E-01  4.070029392711E-01  2.194802170689E-01
H56  2.627751618504E-01 -9.299706072885E-02  2.805197829311E-01
C57  3.790472442129E-01 -4.188147371003E-01 -2.472115977776E-01
C58 -3.790472442129E-01  8.118526289967E-02 -2.527884022224E-01
C59 -3.790472442129E-01  4.188147371003E-01  2.472115977776E-01
C60  3.790472442129E-01 -8.118526289967E-02  2.527884022224E-01
H61  3.889633719478E-01 -3.744975200126E-01 -9.393814021800E-02
H62 -3.889633719478E-01  1.255024799874E-01 -4.060618597820E-01
H63 -3.889633719478E-01  3.744975200126E-01  9.393814021800E-02
H64  3.889633719478E-01 -1.255024799874E-01  4.060618597820E-01
C65  4.408444459786E-01 -4.582594693817E-01 -3.711204090291E-01
C66 -4.408444459786E-01  4.174053061830E-02 -1.288795909709E-01
C67 -4.408444459786E-01  4.582594693817E-01  3.711204090291E-01
C68  4.408444459786E-01 -4.174053061830E-02  1.288795909709E-01
C69  4.266087052503E-01  4.807592503311E-01  4.268887425243E-01
C70 -4.266087052503E-01 -1.924074966887E-02  7.311125747568E-02
C71 -4.266087052503E-01 -4.807592503311E-01 -4.268887425243E-01
C72  4.266087052503E-01  1.924074966887E-02 -7.311125747568E-02
C73  3.521004893255E-01  4.667923194591E-01  3.579002204204E-01
C74 -3.521004893255E-01 -3.320768054095E-02  1.420997795796E-01
C75 -3.521004893255E-01 -4.667923194591E-01 -3.579002204204E-01
C76  3.521004893255E-01  3.320768054095E-02 -1.420997795796E-01
H77  3.427184569402E-01  4.261440105905E-01  2.028174715686E-01
H78 -3.427184569402E-01 -7.385598940947E-02  2.971825284314E-01
H79 -3.427184569402E-01 -4.261440105905E-01 -2.028174715686E-01
H80  3.427184569402E-01  7.385598940947E-02 -2.971825284314E-01
C81 -4.863550641956E-01 -4.401252870924E-01 -3.032122351684E-01
C82  4.863550641956E-01  5.987471290765E-02 -1.967877648316E-01
C83  4.863550641956E-01  4.401252870924E-01  3.032122351684E-01
C84 -4.863550641956E-01 -5.987471290765E-02  1.967877648316E-01
H85 -4.759543701806E-01 -3.931994231322E-01 -1.511099624486E-01
H86  4.759543701806E-01  1.068005768678E-01 -3.488900375514E-01
H87  4.759543701806E-01  3.931994231322E-01  1.511099624486E-01
H88 -4.759543701806E-01 -1.068005768678E-01  3.488900375514E-01


#===END

data_OPT_STEP_32

_symmetry_space_group_name_H-M 'P 1'
_cell_length_a     18.08180625
_cell_length_b      8.07548898
_cell_length_c      6.57829020
_cell_angle_alpha   90.000000
_cell_angle_beta   90.332520
_cell_angle_gamma   90.000000

loop_
_atom_site_label
_atom_site_fract_x
_atom_site_fract_y
_atom_site_fract_z
C1  1.624875173693E-01 -3.886854419460E-01  4.752144182733E-01
C2 -1.624875173693E-01  1.113145580540E-01  2.478558172671E-02
C3 -1.624875173693E-01  3.886854419460E-01 -4.752144182733E-01
C4  1.624875173693E-01 -1.113145580540E-01 -2.478558172671E-02
H5  1.771703229594E-01 -2.964632911923E-01 -4.120958462545E-01
H6 -1.771703229594E-01  2.035367088077E-01 -8.790415374555E-02
H7 -1.771703229594E-01  2.964632911923E-01  4.120958462545E-01
H8  1.771703229594E-01 -2.035367088077E-01  8.790415374555E-02
C9  9.017633372884E-02 -3.942485404619E-01  4.031324538496E-01
C10 -9.017633372884E-02  1.057514595381E-01  9.686754615044E-02
C11 -9.017633372884E-02  3.942485404619E-01 -4.031324538496E-01
C12  9.017633372884E-02 -1.057514595381E-01 -9.686754615044E-02
H13  4.968862575975E-02 -3.088523319644E-01  4.637096020920E-01
H14 -4.968862575975E-02  1.911476680356E-01  3.629039790802E-02
H15 -4.968862575975E-02  3.088523319644E-01 -4.637096020920E-01
H16  4.968862575975E-02 -1.911476680356E-01 -3.629039790802E-02
C17  6.972587623748E-02  4.909697305035E-01  2.554051609371E-01
C18 -6.972587623748E-02 -9.030269496455E-03  2.445948390629E-01
C19 -6.972587623748E-02 -4.909697305035E-01 -2.554051609371E-01
C20  6.972587623748E-02  9.030269496455E-03 -2.445948390629E-01
H21  1.310544461631E-02  4.861734264806E-01  2.007469393359E-01
H22 -1.310544461631E-02 -1.382657351939E-02  2.992530606641E-01
H23 -1.310544461631E-02 -4.861734264806E-01 -2.007469393359E-01
H24  1.310544461631E-02  1.382657351939E-02 -2.992530606641E-01
C25  1.224584136873E-01  3.815864513076E-01  1.804925174739E-01
C26 -1.224584136873E-01 -1.184135486924E-01  3.195074825261E-01
C27 -1.224584136873E-01 -3.815864513076E-01 -1.804925174739E-01
C28  1.224584136873E-01  1.184135486924E-01 -3.195074825261E-01
H29  1.075455670416E-01  2.903834320214E-01  6.657886306729E-02
H30 -1.075455670416E-01 -2.096165679786E-01  4.334211369327E-01
H31 -1.075455670416E-01 -2.903834320214E-01 -6.657886306729E-02
H32  1.075455670416E-01  2.096165679786E-01 -4.334211369327E-01
C33  1.946583282316E-01  3.864273403594E-01  2.536819728908E-01
C34 -1.946583282316E-01 -1.135726596406E-01  2.463180271092E-01
C35 -1.946583282316E-01 -3.864273403594E-01 -2.536819728908E-01
C36  1.946583282316E-01  1.135726596406E-01 -2.463180271092E-01
H37  2.343630522932E-01  2.971715664323E-01  1.979116073812E-01
H38 -2.343630522932E-01 -2.028284335677E-01  3.020883926188E-01
H39 -2.343630522932E-01 -2.971715664323E-01 -1.979116073812E-01
H40  2.343630522932E-01  2.028284335677E-01 -3.020883926188E-01
C41  2.162250747851E-01 -4.983897264585E-01  4.019979620762E-01
C42 -2.162250747851E-01  1.610273541514E-03  9.800203792384E-02
C43 -2.162250747851E-01  4.983897264585E-01 -4.019979620762E-01
C44  2.162250747851E-01 -1.610273541514E-03 -9.800203792384E-02
C45  2.933979419060E-01 -4.909744011455E-01  4.785331911355E-01
C46 -2.933979419060E-01  9.025598854530E-03  2.146680886451E-02
C47 -2.933979419060E-01  4.909744011455E-01 -4.785331911355E-01
C48  2.933979419060E-01 -9.025598854531E-03 -2.146680886451E-02
C49  3.083012381618E-01 -4.348152046099E-01 -3.187770237458E-01
C50 -3.083012381618E-01  6.518479539006E-02 -1.812229762542E-01
C51 -3.083012381618E-01  4.348152046099E-01  3.187770237458E-01
C52  3.083012381618E-01 -6.518479539006E-02  1.812229762542E-01
H53  2.623996525819E-01 -4.060808772935E-01 -2.197385231145E-01
H54 -2.623996525819E-01  9.391912270645E-02 -2.802614768855E-01
H55 -2.623996525819E-01  4.060808772935E-01  2.197385231145E-01
H56  2.623996525819E-01 -9.391912270645E-02  2.802614768855E-01
C57  3.787266822528E-01 -4.185450489488E-01 -2.472433911243E-01
C58 -3.787266822528E-01  8.145495105115E-02 -2.527566088757E-01
C59 -3.787266822528E-01  4.185450489488E-01  2.472433911243E-01
C60  3.787266822528E-01 -8.145495105115E-02  2.527566088757E-01
H61  3.885054339518E-01 -3.742548541631E-01 -9.389846809987E-02
H62 -3.885054339518E-01  1.257451458369E-01 -4.061015319001E-01
H63 -3.885054339518E-01  3.742548541631E-01  9.389846809987E-02
H64  3.885054339518E-01 -1.257451458369E-01  4.061015319001E-01
C65  4.406854258551E-01 -4.583482827129E-01 -3.710359790457E-01
C66 -4.406854258551E-01  4.165171728713E-02 -1.289640209543E-01
C67 -4.406854258551E-01  4.583482827129E-01  3.710359790457E-01
C68  4.406854258551E-01 -4.165171728713E-02  1.289640209543E-01
C69  4.266534284368E-01  4.805483318478E-01  4.269687534097E-01
C70 -4.266534284368E-01 -1.945166815219E-02  7.303124659034E-02
C71 -4.266534284368E-01 -4.805483318478E-01 -4.269687534097E-01
C72  4.266534284368E-01  1.945166815219E-02 -7.303124659034E-02
C73  3.521866147937E-01  4.665894631956E-01  3.579653553846E-01
C74 -3.521866147937E-01 -3.341053680444E-02  1.420346446154E-01
C75 -3.521866147937E-01 -4.665894631956E-01 -3.579653553846E-01
C76  3.521866147937E-01  3.341053680444E-02 -1.420346446154E-01
H77  3.429468628898E-01  4.260460045189E-01  2.027892547999E-01
H78 -3.429468628898E-01 -7.395399548111E-02  2.972107452001E-01
H79 -3.429468628898E-01 -4.260460045189E-01 -2.027892547999E-01
H80  3.429468628898E-01  7.395399548111E-02 -2.972107452001E-01
C81 -4.865557476366E-01 -4.400418174664E-01 -3.031907581110E-01
C82  4.865557476366E-01  5.995818253361E-02 -1.968092418890E-01
C83  4.865557476366E-01  4.400418174664E-01  3.031907581110E-01
C84 -4.865557476366E-01 -5.995818253361E-02  1.968092418890E-01
H85 -4.763048700551E-01 -3.928387847685E-01 -1.511599644252E-01
H86  4.763048700551E-01  1.071612152315E-01 -3.488400355748E-01
H87  4.763048700551E-01  3.928387847685E-01  1.511599644252E-01
H88 -4.763048700551E-01 -1.071612152315E-01  3.488400355748E-01


#===END

data_OPT_STEP_33

_symmetry_space_group_name_H-M 'P 1'
_cell_length_a     18.08078148
_cell_length_b      8.07887313
_cell_length_c      6.57731222
_cell_angle_alpha   90.000000
_cell_angle_beta   90.379019
_cell_angle_gamma   90.000000

loop_
_atom_site_label
_atom_site_fract_x
_atom_site_fract_y
_atom_site_fract_z
C1  1.624771941225E-01 -3.886120938408E-01  4.753556942997E-01
C2 -1.624771941225E-01  1.113879061592E-01  2.464430570033E-02
C3 -1.624771941225E-01  3.886120938408E-01 -4.753556942997E-01
C4  1.624771941225E-01 -1.113879061592E-01 -2.464430570033E-02
H5  1.772344121238E-01 -2.962421511113E-01 -4.121723531962E-01
H6 -1.772344121238E-01  2.037578488887E-01 -8.782764680375E-02
H7 -1.772344121238E-01  2.962421511113E-01  4.121723531962E-01
H8  1.772344121238E-01 -2.037578488887E-01  8.782764680375E-02
C9  9.014961122993E-02 -3.940715827224E-01  4.031776002714E-01
C10 -9.014961122993E-02  1.059284172776E-01  9.682239972859E-02
C11 -9.014961122993E-02  3.940715827224E-01 -4.031776002714E-01
C12  9.014961122993E-02 -1.059284172776E-01 -9.682239972859E-02
H13  4.973105576104E-02 -3.084433921068E-01  4.634903241704E-01
H14 -4.973105576104E-02  1.915566078932E-01  3.650967582959E-02
H15 -4.973105576104E-02  3.084433921068E-01 -4.634903241704E-01
H16  4.973105576104E-02 -1.915566078932E-01 -3.650967582959E-02
C17  6.961528186550E-02  4.909338879617E-01  2.557169689847E-01
C18 -6.961528186550E-02 -9.066112038309E-03  2.442830310153E-01
C19 -6.961528186550E-02 -4.909338879617E-01 -2.557169689847E-01
C20  6.961528186550E-02  9.066112038309E-03 -2.442830310153E-01
H21  1.298390683326E-02  4.861651119018E-01  2.010059048895E-01
H22 -1.298390683326E-02 -1.383488809818E-02  2.989940951105E-01
H23 -1.298390683326E-02 -4.861651119018E-01 -2.010059048895E-01
H24  1.298390683326E-02  1.383488809818E-02 -2.989940951105E-01
C25  1.222973392323E-01  3.813664889768E-01  1.810584328360E-01
C26 -1.222973392323E-01 -1.186335110232E-01  3.189415671640E-01
C27 -1.222973392323E-01 -3.813664889768E-01 -1.810584328360E-01
C28  1.222973392323E-01  1.186335110232E-01 -3.189415671640E-01
H29  1.073488902978E-01  2.903015653017E-01  6.709858402856E-02
H30 -1.073488902978E-01 -2.096984346983E-01  4.329014159714E-01
H31 -1.073488902978E-01 -2.903015653017E-01 -6.709858402856E-02
H32  1.073488902978E-01  2.096984346983E-01 -4.329014159714E-01
C33  1.945377110098E-01  3.863393979987E-01  2.541240993731E-01
C34 -1.945377110098E-01 -1.136606020013E-01  2.458759006269E-01
C35 -1.945377110098E-01 -3.863393979987E-01 -2.541240993731E-01
C36  1.945377110098E-01  1.136606020013E-01 -2.458759006269E-01
H37  2.342173581892E-01  2.970932052213E-01  1.984033103435E-01
H38 -2.342173581892E-01 -2.029067947787E-01  3.015966896565E-01
H39 -2.342173581892E-01 -2.970932052213E-01 -1.984033103435E-01
H40  2.342173581892E-01  2.029067947787E-01 -3.015966896565E-01
C41  2.161743721977E-01 -4.983623065625E-01  4.022583373935E-01
C42 -2.161743721977E-01  1.637693437452E-03  9.774166260650E-02
C43 -2.161743721977E-01  4.983623065625E-01 -4.022583373935E-01
C44  2.161743721977E-01 -1.637693437452E-03 -9.774166260650E-02
C45  2.933831883871E-01 -4.908677771310E-01  4.787021697314E-01
C46 -2.933831883871E-01  9.132222869036E-03  2.129783026856E-02
C47 -2.933831883871E-01  4.908677771310E-01 -4.787021697314E-01
C48  2.933831883871E-01 -9.132222869036E-03 -2.129783026856E-02
C49  3.083661590314E-01 -4.347796951378E-01 -3.185766730809E-01
C50 -3.083661590314E-01  6.522030486217E-02 -1.814233269191E-01
C51 -3.083661590314E-01  4.347796951378E-01  3.185766730809E-01
C52  3.083661590314E-01 -6.522030486217E-02  1.814233269191E-01
H53  2.625050434797E-01 -4.059825276638E-01 -2.195355183314E-01
H54 -2.625050434797E-01  9.401747233621E-02 -2.804644816686E-01
H55 -2.625050434797E-01  4.059825276638E-01  2.195355183314E-01
H56  2.625050434797E-01 -9.401747233621E-02  2.804644816686E-01
C57  3.788228925110E-01 -4.187432338966E-01 -2.470134688405E-01
C58 -3.788228925110E-01  8.125676610339E-02 -2.529865311595E-01
C59 -3.788228925110E-01  4.187432338966E-01  2.470134688405E-01
C60  3.788228925110E-01 -8.125676610339E-02  2.529865311595E-01
H61  3.886602341870E-01 -3.744737769331E-01 -9.365902972161E-02
H62 -3.886602341870E-01  1.255262230669E-01 -4.063409702784E-01
H63 -3.886602341870E-01  3.744737769331E-01  9.365902972161E-02
H64  3.886602341870E-01 -1.255262230669E-01  4.063409702784E-01
C65  4.407352942969E-01 -4.585195818353E-01 -3.708878241261E-01
C66 -4.407352942969E-01  4.148041816472E-02 -1.291121758739E-01
C67 -4.407352942969E-01  4.585195818353E-01  3.708878241261E-01
C68  4.407352942969E-01 -4.148041816472E-02  1.291121758739E-01
C69  4.266211387748E-01  4.805743556902E-01  4.270248616131E-01
C70 -4.266211387748E-01 -1.942564430979E-02  7.297513838690E-02
C71 -4.266211387748E-01 -4.805743556902E-01 -4.270248616131E-01
C72  4.266211387748E-01  1.942564430978E-02 -7.297513838690E-02
C73  3.521223636557E-01  4.667438707357E-01  3.580395413331E-01
C74 -3.521223636557E-01 -3.325612926434E-02  1.419604586669E-01
C75 -3.521223636557E-01 -4.667438707357E-01 -3.580395413331E-01
C76  3.521223636557E-01  3.325612926434E-02 -1.419604586669E-01
H77  3.428122678022E-01  4.261704204022E-01  2.028857729942E-01
H78 -3.428122678022E-01 -7.382957959777E-02  2.971142270058E-01
H79 -3.428122678022E-01 -4.261704204022E-01 -2.028857729942E-01
H80  3.428122678022E-01  7.382957959777E-02 -2.971142270058E-01
C81 -4.864768802913E-01 -4.401241059549E-01 -3.031493756569E-01
C82  4.864768802913E-01  5.987589404514E-02 -1.968506243431E-01
C83  4.864768802913E-01  4.401241059549E-01  3.031493756569E-01
C84 -4.864768802913E-01 -5.987589404514E-02  1.968506243431E-01
H85 -4.761597475123E-01 -3.933582335262E-01 -1.509199705857E-01
H86  4.761597475123E-01  1.066417664738E-01 -3.490800294143E-01
H87  4.761597475123E-01  3.933582335262E-01  1.509199705857E-01
H88 -4.761597475123E-01 -1.066417664738E-01  3.490800294143E-01


#===END

data_OPT_STEP_34

_symmetry_space_group_name_H-M 'P 1'
_cell_length_a     18.08018609
_cell_length_b      8.08248915
_cell_length_c      6.57482930
_cell_angle_alpha   90.000000
_cell_angle_beta   90.425761
_cell_angle_gamma   90.000000

loop_
_atom_site_label
_atom_site_fract_x
_atom_site_fract_y
_atom_site_fract_z
C1  1.624717448832E-01 -3.883623934739E-01  4.753909121395E-01
C2 -1.624717448832E-01  1.116376065261E-01  2.460908786047E-02
C3 -1.624717448832E-01  3.883623934739E-01 -4.753909121395E-01
C4  1.624717448832E-01 -1.116376065261E-01 -2.460908786047E-02
H5  1.772928895823E-01 -2.959131417640E-01 -4.122705635588E-01
H6 -1.772928895823E-01  2.040868582360E-01 -8.772943644123E-02
H7 -1.772928895823E-01  2.959131417640E-01  4.122705635588E-01
H8  1.772928895823E-01 -2.040868582360E-01  8.772943644123E-02
C9  9.011698801858E-02 -3.938420764590E-01  4.031929111651E-01
C10 -9.011698801858E-02  1.061579235410E-01  9.680708883493E-02
C11 -9.011698801858E-02  3.938420764590E-01 -4.031929111651E-01
C12  9.011698801858E-02 -1.061579235410E-01 -9.680708883493E-02
H13  4.975838984034E-02 -3.080088092650E-01  4.632451418839E-01
H14 -4.975838984034E-02  1.919911907350E-01  3.675485811615E-02
H15 -4.975838984034E-02  3.080088092650E-01 -4.632451418839E-01
H16  4.975838984034E-02 -1.919911907350E-01 -3.675485811615E-02
C17  6.951832197329E-02  4.910713273331E-01  2.558886415173E-01
C18 -6.951832197329E-02 -8.928672666949E-03  2.441113584827E-01
C19 -6.951832197329E-02 -4.910713273331E-01 -2.558886415173E-01
C20  6.951832197329E-02  8.928672666948E-03 -2.441113584827E-01
H21  1.286315287826E-02  4.862345141796E-01  2.012088618040E-01
H22 -1.286315287826E-02 -1.376548582036E-02  2.987911381960E-01
H23 -1.286315287826E-02 -4.862345141796E-01 -2.012088618040E-01
H24  1.286315287826E-02  1.376548582036E-02 -2.987911381960E-01
C25  1.221583272875E-01  3.813789051664E-01  1.814479335816E-01
C26 -1.221583272875E-01 -1.186210948336E-01  3.185520664184E-01
C27 -1.221583272875E-01 -3.813789051664E-01 -1.814479335816E-01
C28  1.221583272875E-01  1.186210948336E-01 -3.185520664184E-01
H29  1.071539412521E-01  2.902260095220E-01  6.762061775904E-02
H30 -1.071539412521E-01 -2.097739904780E-01  4.323793822410E-01
H31 -1.071539412521E-01 -2.902260095220E-01 -6.762061775904E-02
H32  1.071539412521E-01  2.097739904780E-01 -4.323793822410E-01
C33  1.944251324923E-01  3.863666329327E-01  2.545235045344E-01
C34 -1.944251324923E-01 -1.136333670673E-01  2.454764954656E-01
C35 -1.944251324923E-01 -3.863666329327E-01 -2.545235045344E-01
C36  1.944251324923E-01  1.136333670673E-01 -2.454764954656E-01
H37  2.340713509329E-01  2.970233541400E-01  1.989607306243E-01
H38 -2.340713509329E-01 -2.029766458600E-01  3.010392693757E-01
H39 -2.340713509329E-01 -2.970233541400E-01 -1.989607306243E-01
H40  2.340713509329E-01  2.029766458600E-01 -3.010392693757E-01
C41  2.161261205276E-01 -4.982202226889E-01  4.024793574212E-01
C42 -2.161261205276E-01  1.779777311091E-03  9.752064257880E-02
C43 -2.161261205276E-01  4.982202226889E-01 -4.024793574212E-01
C44  2.161261205276E-01 -1.779777311091E-03 -9.752064257880E-02
C45  2.933663059704E-01 -4.906938359079E-01  4.788774849651E-01
C46 -2.933663059704E-01  9.306164092126E-03  2.112251503486E-02
C47 -2.933663059704E-01  4.906938359079E-01 -4.788774849651E-01
C48  2.933663059704E-01 -9.306164092126E-03 -2.112251503486E-02
C49  3.084355284031E-01 -4.345500164625E-01 -3.183723811074E-01
C50 -3.084355284031E-01  6.544998353749E-02 -1.816276188926E-01
C51 -3.084355284031E-01  4.345500164625E-01  3.183723811074E-01
C52  3.084355284031E-01 -6.544998353749E-02  1.816276188926E-01
H53  2.626169263760E-01 -4.056551209559E-01 -2.193069931080E-01
H54 -2.626169263760E-01  9.434487904406E-02 -2.806930068920E-01
H55 -2.626169263760E-01  4.056551209559E-01  2.193069931080E-01
H56  2.626169263760E-01 -9.434487904406E-02  2.806930068920E-01
C57  3.789277559253E-01 -4.184202307910E-01 -2.469050602308E-01
C58 -3.789277559253E-01  8.157976920904E-02 -2.530949397692E-01
C59 -3.789277559253E-01  4.184202307910E-01  2.469050602308E-01
C60  3.789277559253E-01 -8.157976920904E-02  2.530949397692E-01
H61  3.888297831927E-01 -3.742670213147E-01 -9.345791757226E-02
H62 -3.888297831927E-01  1.257329786853E-01 -4.065420824277E-01
H63 -3.888297831927E-01  3.742670213147E-01  9.345791757226E-02
H64  3.888297831927E-01 -1.257329786853E-01  4.065420824277E-01
C65  4.407884861885E-01 -4.583550807173E-01 -3.708372848784E-01
C66 -4.407884861885E-01  4.164491928275E-02 -1.291627151216E-01
C67 -4.407884861885E-01  4.583550807173E-01  3.708372848784E-01
C68  4.407884861885E-01 -4.164491928275E-02  1.291627151216E-01
C69  4.265830759954E-01  4.806923594781E-01  4.270495475575E-01
C70 -4.265830759954E-01 -1.930764052192E-02  7.295045244249E-02
C71 -4.265830759954E-01 -4.806923594781E-01 -4.270495475575E-01
C72  4.265830759954E-01  1.930764052192E-02 -7.295045244249E-02
C73  3.520502636097E-01  4.668898635821E-01  3.581178946173E-01
C74 -3.520502636097E-01 -3.311013641793E-02  1.418821053827E-01
C75 -3.520502636097E-01 -4.668898635821E-01 -3.581178946173E-01
C76  3.520502636097E-01  3.311013641793E-02 -1.418821053827E-01
H77  3.426632141068E-01  4.264142924358E-01  2.028818279153E-01
H78 -3.426632141068E-01 -7.358570756419E-02  2.971181720847E-01
H79 -3.426632141068E-01 -4.264142924358E-01 -2.028818279153E-01
H80  3.426632141068E-01  7.358570756419E-02 -2.971181720847E-01
C81 -4.863872990215E-01 -4.400744408066E-01 -3.031286660565E-01
C82  4.863872990215E-01  5.992555919342E-02 -1.968713339435E-01
C83  4.863872990215E-01  4.400744408066E-01  3.031286660565E-01
C84 -4.863872990215E-01 -5.992555919342E-02  1.968713339435E-01
H85 -4.759984617361E-01 -3.932798458745E-01 -1.508803091782E-01
H86  4.759984617361E-01  1.067201541255E-01 -3.491196908218E-01
H87  4.759984617361E-01  3.932798458745E-01  1.508803091782E-01
H88 -4.759984617361E-01 -1.067201541255E-01  3.491196908218E-01


#===END

data_OPT_STEP_35

_symmetry_space_group_name_H-M 'P 1'
_cell_length_a     18.08198121
_cell_length_b      8.08912419
_cell_length_c      6.57104051
_cell_angle_alpha   90.000000
_cell_angle_beta   90.532641
_cell_angle_gamma   90.000000

loop_
_atom_site_label
_atom_site_fract_x
_atom_site_fract_y
_atom_site_fract_z
C1  1.625721445820E-01 -3.875269046091E-01  4.747405527140E-01
C2 -1.625721445820E-01  1.124730953909E-01  2.525944728603E-02
C3 -1.625721445820E-01  3.875269046091E-01 -4.747405527140E-01
C4  1.625721445820E-01 -1.124730953909E-01 -2.525944728603E-02
H5  1.775211890620E-01 -2.951087392281E-01 -4.130257854222E-01
H6 -1.775211890620E-01  2.048912607719E-01 -8.697421457775E-02
H7 -1.775211890620E-01  2.951087392281E-01  4.130257854222E-01
H8  1.775211890620E-01 -2.048912607719E-01  8.697421457775E-02
C9  9.016040532883E-02 -3.930170015805E-01  4.025923999115E-01
C10 -9.016040532883E-02  1.069829984195E-01  9.740760008853E-02
C11 -9.016040532883E-02  3.930170015805E-01 -4.025923999115E-01
C12  9.016040532883E-02 -1.069829984195E-01 -9.740760008853E-02
H13  4.992675199848E-02 -3.070012804980E-01  4.623889839397E-01
H14 -4.992675199848E-02  1.929987195020E-01  3.761101606026E-02
H15 -4.992675199848E-02  3.070012804980E-01 -4.623889839397E-01
H16  4.992675199848E-02 -1.929987195020E-01 -3.761101606026E-02
C17  6.938921762021E-02  4.916765760878E-01  2.556877911822E-01
C18 -6.938921762021E-02 -8.323423912179E-03  2.443122088178E-01
C19 -6.938921762021E-02 -4.916765760878E-01 -2.556877911822E-01
C20  6.938921762021E-02  8.323423912179E-03 -2.443122088178E-01
H21  1.267562453410E-02  4.867075654417E-01  2.012074055368E-01
H22 -1.267562453410E-02 -1.329243455827E-02  2.987925944632E-01
H23 -1.267562453410E-02 -4.867075654417E-01 -2.012074055368E-01
H24  1.267562453410E-02  1.329243455827E-02 -2.987925944632E-01
C25  1.219229412411E-01  3.817986450346E-01  1.815326045625E-01
C26 -1.219229412411E-01 -1.182013549654E-01  3.184673954375E-01
C27 -1.219229412411E-01 -3.817986450346E-01 -1.815326045625E-01
C28  1.219229412411E-01  1.182013549654E-01 -3.184673954375E-01
H29  1.067785448824E-01  2.904422934443E-01  6.800721645976E-02
H30 -1.067785448824E-01 -2.095577065557E-01  4.319927835402E-01
H31 -1.067785448824E-01 -2.904422934443E-01 -6.800721645976E-02
H32  1.067785448824E-01  2.095577065557E-01 -4.319927835402E-01
C33  1.942446475223E-01  3.867289201363E-01  2.545811611828E-01
C34 -1.942446475223E-01 -1.132710798637E-01  2.454188388172E-01
C35 -1.942446475223E-01 -3.867289201363E-01 -2.545811611828E-01
C36  1.942446475223E-01  1.132710798637E-01 -2.454188388172E-01
H37  2.338020993914E-01  2.972531897661E-01  1.991919837064E-01
H38 -2.338020993914E-01 -2.027468102339E-01  3.008080162936E-01
H39 -2.338020993914E-01 -2.972531897661E-01 -1.991919837064E-01
H40  2.338020993914E-01  2.027468102339E-01 -3.008080162936E-01
C41  2.161049792983E-01 -4.976942063352E-01  4.022114191073E-01
C42 -2.161049792983E-01  2.305793664787E-03  9.778858089271E-02
C43 -2.161049792983E-01  4.976942063352E-01 -4.022114191073E-01
C44  2.161049792983E-01 -2.305793664788E-03 -9.778858089271E-02
C45  2.933702133379E-01 -4.904824398143E-01  4.787891019395E-01
C46 -2.933702133379E-01  9.517560185695E-03  2.121089806048E-02
C47 -2.933702133379E-01  4.904824398143E-01 -4.787891019395E-01
C48  2.933702133379E-01 -9.517560185696E-03 -2.121089806048E-02
C49  3.085730464470E-01 -4.342108563122E-01 -3.184155513272E-01
C50 -3.085730464470E-01  6.578914368782E-02 -1.815844486728E-01
C51 -3.085730464470E-01  4.342108563122E-01  3.184155513272E-01
C52  3.085730464470E-01 -6.578914368782E-02  1.815844486728E-01
H53  2.628370383393E-01 -4.052705605506E-01 -2.193389766201E-01
H54 -2.628370383393E-01  9.472943944945E-02 -2.806610233799E-01
H55 -2.628370383393E-01  4.052705605506E-01  2.193389766201E-01
H56  2.628370383393E-01 -9.472943944945E-02  2.806610233799E-01
C57  3.791095275093E-01 -4.183774921829E-01 -2.467882190727E-01
C58 -3.791095275093E-01  8.162250781708E-02 -2.532117809273E-01
C59 -3.791095275093E-01  4.183774921829E-01  2.467882190727E-01
C60  3.791095275093E-01 -8.162250781708E-02  2.532117809273E-01
H61  3.891246415503E-01 -3.742885979218E-01 -9.322254795607E-02
H62 -3.891246415503E-01  1.257114020782E-01 -4.067774520439E-01
H63 -3.891246415503E-01  3.742885979218E-01  9.322254795607E-02
H64  3.891246415503E-01 -1.257114020782E-01  4.067774520439E-01
C65  4.408811075734E-01 -4.585014243108E-01 -3.707129000221E-01
C66 -4.408811075734E-01  4.149857568918E-02 -1.292870999779E-01
C67 -4.408811075734E-01  4.585014243108E-01  3.707129000221E-01
C68  4.408811075734E-01 -4.149857568918E-02  1.292870999779E-01
C69  4.265324842034E-01  4.806862601201E-01  4.270179105936E-01
C70 -4.265324842034E-01 -1.931373987992E-02  7.298208940641E-02
C71 -4.265324842034E-01 -4.806862601201E-01 -4.270179105936E-01
C72  4.265324842034E-01  1.931373987992E-02 -7.298208940641E-02
C73  3.519549341721E-01  4.670118051614E-01  3.579999170452E-01
C74 -3.519549341721E-01 -3.298819483856E-02  1.420000829548E-01
C75 -3.519549341721E-01 -4.670118051614E-01 -3.579999170452E-01
C76  3.519549341721E-01  3.298819483856E-02 -1.420000829548E-01
H77  3.424212836913E-01  4.266035002078E-01  2.026670737436E-01
H78 -3.424212836913E-01 -7.339649979221E-02  2.973329262564E-01
H79 -3.424212836913E-01 -4.266035002078E-01 -2.026670737436E-01
H80  3.424212836913E-01  7.339649979221E-02 -2.973329262564E-01
C81 -4.862496662646E-01 -4.402518158800E-01 -3.029651191496E-01
C82  4.862496662646E-01  5.974818412001E-02 -1.970348808504E-01
C83  4.862496662646E-01  4.402518158800E-01  3.029651191496E-01
C84 -4.862496662646E-01 -5.974818412001E-02  1.970348808504E-01
H85 -4.757480363130E-01 -3.933108868802E-01 -1.507154066547E-01
H86  4.757480363130E-01  1.066891131198E-01 -3.492845933453E-01
H87  4.757480363130E-01  3.933108868802E-01  1.507154066547E-01
H88 -4.757480363130E-01 -1.066891131198E-01  3.492845933453E-01


#===END

data_OPT_STEP_36

_symmetry_space_group_name_H-M 'P 1'
_cell_length_a     18.09014668
_cell_length_b      8.08350177
_cell_length_c      6.56978090
_cell_angle_alpha   90.000000
_cell_angle_beta   90.648137
_cell_angle_gamma   90.000000

loop_
_atom_site_label
_atom_site_fract_x
_atom_site_fract_y
_atom_site_fract_z
C1  1.627259430747E-01 -3.877352224564E-01  4.745498830923E-01
C2 -1.627259430747E-01  1.122647775436E-01  2.545011690770E-02
C3 -1.627259430747E-01  3.877352224564E-01 -4.745498830923E-01
C4  1.627259430747E-01 -1.122647775436E-01 -2.545011690770E-02
H5  1.778358026775E-01 -2.948513093545E-01 -4.136631277936E-01
H6 -1.778358026775E-01  2.051486906455E-01 -8.633687220638E-02
H7 -1.778358026775E-01  2.948513093545E-01  4.136631277936E-01
H8  1.778358026775E-01 -2.051486906455E-01  8.633687220638E-02
C9  9.029206898601E-02 -3.931692187992E-01  4.024446936706E-01
C10 -9.029206898601E-02  1.068307812008E-01  9.755530632944E-02
C11 -9.029206898601E-02  3.931692187992E-01 -4.024446936706E-01
C12  9.029206898601E-02 -1.068307812008E-01 -9.755530632944E-02
H13  5.015834579332E-02 -3.070211972505E-01  4.621085686878E-01
H14 -5.015834579332E-02  1.929788027495E-01  3.789143131219E-02
H15 -5.015834579332E-02  3.070211972505E-01 -4.621085686878E-01
H16  5.015834579332E-02 -1.929788027495E-01 -3.789143131219E-02
C17  6.937087755936E-02  4.914483335090E-01  2.556494948416E-01
C18 -6.937087755936E-02 -8.551666490983E-03  2.443505051584E-01
C19 -6.937087755936E-02 -4.914483335090E-01 -2.556494948416E-01
C20  6.937087755936E-02  8.551666490983E-03 -2.443505051584E-01
H21  1.262271992842E-02  4.866157879640E-01  2.012591888893E-01
H22 -1.262271992842E-02 -1.338421203597E-02  2.987408111107E-01
H23 -1.262271992842E-02 -4.866157879640E-01 -2.012591888893E-01
H24  1.262271992842E-02  1.338421203597E-02 -2.987408111107E-01
C25  1.217784712440E-01  3.813336459671E-01  1.816135877961E-01
C26 -1.217784712440E-01 -1.186663540329E-01  3.183864122039E-01
C27 -1.217784712440E-01 -3.813336459671E-01 -1.816135877961E-01
C28  1.217784712440E-01  1.186663540329E-01 -3.183864122039E-01
H29  1.065218795728E-01  2.899130222832E-01  6.814372799982E-02
H30 -1.065218795728E-01 -2.100869777168E-01  4.318562720002E-01
H31 -1.065218795728E-01 -2.899130222832E-01 -6.814372799982E-02
H32  1.065218795728E-01  2.100869777168E-01 -4.318562720002E-01
C33  1.941385832644E-01  3.862472355132E-01  2.545792134101E-01
C34 -1.941385832644E-01 -1.137527644868E-01  2.454207865899E-01
C35 -1.941385832644E-01 -3.862472355132E-01 -2.545792134101E-01
C36  1.941385832644E-01  1.137527644868E-01 -2.454207865899E-01
H37  2.336012230621E-01  2.964824948701E-01  1.993601938823E-01
H38 -2.336012230621E-01 -2.035175051299E-01  3.006398061177E-01
H39 -2.336012230621E-01 -2.964824948701E-01 -1.993601938823E-01
H40  2.336012230621E-01  2.035175051299E-01 -3.006398061177E-01
C41  2.161443449365E-01 -4.980481569730E-01  4.020910176980E-01
C42 -2.161443449365E-01  1.951843027046E-03  9.790898230201E-02
C43 -2.161443449365E-01  4.980481569730E-01 -4.020910176980E-01
C44  2.161443449365E-01 -1.951843027046E-03 -9.790898230201E-02
C45  2.934488066796E-01 -4.906340974984E-01  4.785632270283E-01
C46 -2.934488066796E-01  9.365902501572E-03  2.143677297175E-02
C47 -2.934488066796E-01  4.906340974984E-01 -4.785632270283E-01
C48  2.934488066796E-01 -9.365902501572E-03 -2.143677297175E-02
C49  3.087680419454E-01 -4.343796125934E-01 -3.185584135283E-01
C50 -3.087680419454E-01  6.562038740657E-02 -1.814415864717E-01
C51 -3.087680419454E-01  4.343796125934E-01  3.185584135283E-01
C52  3.087680419454E-01 -6.562038740657E-02  1.814415864717E-01
H53  2.631090681878E-01 -4.054161167155E-01 -2.195043219253E-01
H54 -2.631090681878E-01  9.458388328453E-02 -2.804956780747E-01
H55 -2.631090681878E-01  4.054161167155E-01  2.195043219253E-01
H56  2.631090681878E-01 -9.458388328453E-02  2.804956780747E-01
C57  3.793144160611E-01 -4.182095439592E-01 -2.469519967991E-01
C58 -3.793144160611E-01  8.179045604083E-02 -2.530480032009E-01
C59 -3.793144160611E-01  4.182095439592E-01  2.469519967991E-01
C60  3.793144160611E-01 -8.179045604083E-02  2.530480032009E-01
H61  3.894134217145E-01 -3.740920375055E-01 -9.332403184017E-02
H62 -3.894134217145E-01  1.259079624945E-01 -4.066759681598E-01
H63 -3.894134217145E-01  3.740920375055E-01  9.332403184017E-02
H64  3.894134217145E-01 -1.259079624945E-01  4.066759681598E-01
C65  4.409824000033E-01 -4.582819289022E-01 -3.708569078684E-01
C66 -4.409824000033E-01  4.171807109778E-02 -1.291430921316E-01
C67 -4.409824000033E-01  4.582819289022E-01  3.708569078684E-01
C68  4.409824000033E-01 -4.171807109778E-02  1.291430921316E-01
C69  4.265221541830E-01  4.807996753242E-01  4.268287281007E-01
C70 -4.265221541830E-01 -1.920032467584E-02  7.317127189930E-02
C71 -4.265221541830E-01 -4.807996753242E-01 -4.268287281007E-01
C72  4.265221541830E-01  1.920032467584E-02 -7.317127189930E-02
C73  3.519387852230E-01  4.670426791146E-01  3.577098843241E-01
C74 -3.519387852230E-01 -3.295732088535E-02  1.422901156759E-01
C75 -3.519387852230E-01 -4.670426791146E-01 -3.577098843241E-01
C76  3.519387852230E-01  3.295732088535E-02 -1.422901156759E-01
H77  3.423064757376E-01  4.265834862489E-01  2.023233414327E-01
H78 -3.423064757376E-01 -7.341651375111E-02  2.976766585673E-01
H79 -3.423064757376E-01 -4.265834862489E-01 -2.023233414327E-01
H80  3.423064757376E-01  7.341651375111E-02 -2.976766585673E-01
C81 -4.861408841854E-01 -4.401871418040E-01 -3.029089276306E-01
C82  4.861408841854E-01  5.981285819604E-02 -1.970910723694E-01
C83  4.861408841854E-01  4.401871418040E-01  3.029089276306E-01
C84 -4.861408841854E-01 -5.981285819605E-02  1.970910723694E-01
H85 -4.755467085599E-01 -3.932089310011E-01 -1.506059707479E-01
H86  4.755467085599E-01  1.067910689989E-01 -3.493940292521E-01
H87  4.755467085599E-01  3.932089310011E-01  1.506059707479E-01
H88 -4.755467085599E-01 -1.067910689989E-01  3.493940292521E-01


#===END

data_OPT_STEP_37

_symmetry_space_group_name_H-M 'P 1'
_cell_length_a     18.08769565
_cell_length_b      8.08631684
_cell_length_c      6.56812309
_cell_angle_alpha   90.000000
_cell_angle_beta   90.631099
_cell_angle_gamma   90.000000

loop_
_atom_site_label
_atom_site_fract_x
_atom_site_fract_y
_atom_site_fract_z
C1  1.626812873886E-01 -3.878671006525E-01  4.747270013130E-01
C2 -1.626812873886E-01  1.121328993475E-01  2.527299868702E-02
C3 -1.626812873886E-01  3.878671006525E-01 -4.747270013130E-01
C4  1.626812873886E-01 -1.121328993475E-01 -2.527299868702E-02
H5  1.777613692915E-01 -2.951487427159E-01 -4.133189520364E-01
H6 -1.777613692915E-01  2.048512572841E-01 -8.668104796361E-02
H7 -1.777613692915E-01  2.951487427159E-01  4.133189520364E-01
H8  1.777613692915E-01 -2.048512572841E-01  8.668104796361E-02
C9  9.024314811005E-02 -3.933356222725E-01  4.026394726888E-01
C10 -9.024314811005E-02  1.066643777275E-01  9.736052731124E-02
C11 -9.024314811005E-02  3.933356222725E-01 -4.026394726888E-01
C12  9.024314811005E-02 -1.066643777275E-01 -9.736052731124E-02
H13  5.010307940962E-02 -3.071504325874E-01  4.622910739185E-01
H14 -5.010307940962E-02  1.928495674126E-01  3.770892608150E-02
H15 -5.010307940962E-02  3.071504325874E-01 -4.622910739185E-01
H16  5.010307940962E-02 -1.928495674126E-01 -3.770892608150E-02
C17  6.933867035901E-02  4.912914362388E-01  2.557873038461E-01
C18 -6.933867035901E-02 -8.708563761179E-03  2.442126961539E-01
C19 -6.933867035901E-02 -4.912914362388E-01 -2.557873038461E-01
C20  6.933867035901E-02  8.708563761179E-03 -2.442126961539E-01
H21  1.259483450430E-02  4.864964721907E-01  2.013272704119E-01
H22 -1.259483450430E-02 -1.350352780926E-02  2.986727295881E-01
H23 -1.259483450430E-02 -4.864964721907E-01 -2.013272704119E-01
H24  1.259483450430E-02  1.350352780926E-02 -2.986727295881E-01
C25  1.217729475245E-01  3.812896722608E-01  1.816414521335E-01
C26 -1.217729475245E-01 -1.187103277392E-01  3.183585478665E-01
C27 -1.217729475245E-01 -3.812896722608E-01 -1.816414521335E-01
C28  1.217729475245E-01  1.187103277392E-01 -3.183585478665E-01
H29  1.065282321400E-01  2.898588623488E-01  6.815671824574E-02
H30 -1.065282321400E-01 -2.101411376512E-01  4.318432817543E-01
H31 -1.065282321400E-01 -2.898588623488E-01 -6.815671824574E-02
H32  1.065282321400E-01  2.101411376512E-01 -4.318432817543E-01
C33  1.941317838325E-01  3.862071677695E-01  2.546318392938E-01
C34 -1.941317838325E-01 -1.137928322305E-01  2.453681607062E-01
C35 -1.941317838325E-01 -3.862071677695E-01 -2.546318392938E-01
C36  1.941317838325E-01  1.137928322305E-01 -2.453681607062E-01
H37  2.336159988944E-01  2.965406305247E-01  1.993191392082E-01
H38 -2.336159988944E-01 -2.034593694753E-01  3.006808607918E-01
H39 -2.336159988944E-01 -2.965406305247E-01 -1.993191392082E-01
H40  2.336159988944E-01  2.034593694753E-01 -3.006808607918E-01
C41  2.161184694768E-01 -4.981346856713E-01  4.022221779648E-01
C42 -2.161184694768E-01  1.865314328683E-03  9.777782203516E-02
C43 -2.161184694768E-01  4.981346856713E-01 -4.022221779648E-01
C44  2.161184694768E-01 -1.865314328683E-03 -9.777782203516E-02
C45  2.934294716913E-01 -4.906628799841E-01  4.786780897014E-01
C46 -2.934294716913E-01  9.337120015876E-03  2.132191029862E-02
C47 -2.934294716913E-01  4.906628799841E-01 -4.786780897014E-01
C48  2.934294716913E-01 -9.337120015876E-03 -2.132191029862E-02
C49  3.087386108884E-01 -4.343912805028E-01 -3.184129085913E-01
C50 -3.087386108884E-01  6.560871949722E-02 -1.815870914087E-01
C51 -3.087386108884E-01  4.343912805028E-01  3.184129085913E-01
C52  3.087386108884E-01 -6.560871949722E-02  1.815870914087E-01
H53  2.630709988754E-01 -4.052700825136E-01 -2.193780605757E-01
H54 -2.630709988754E-01  9.472991748643E-02 -2.806219394243E-01
H55 -2.630709988754E-01  4.052700825136E-01  2.193780605757E-01
H56  2.630709988754E-01 -9.472991748643E-02  2.806219394243E-01
C57  3.792898344070E-01 -4.182333514139E-01 -2.468256711914E-01
C58 -3.792898344070E-01  8.176664858607E-02 -2.531743288086E-01
C59 -3.792898344070E-01  4.182333514139E-01  2.468256711914E-01
C60  3.792898344070E-01 -8.176664858607E-02  2.531743288086E-01
H61  3.893845310289E-01 -3.741326995004E-01 -9.316894023254E-02
H62 -3.893845310289E-01  1.258673004996E-01 -4.068310597675E-01
H63 -3.893845310289E-01  3.741326995004E-01  9.316894023254E-02
H64  3.893845310289E-01 -1.258673004996E-01  4.068310597675E-01
C65  4.409706015613E-01 -4.583271433818E-01 -3.707759266111E-01
C66 -4.409706015613E-01  4.167285661817E-02 -1.292240733889E-01
C67 -4.409706015613E-01  4.583271433818E-01  3.707759266111E-01
C68  4.409706015613E-01 -4.167285661817E-02  1.292240733889E-01
C69  4.265200692797E-01  4.807165798787E-01  4.268939738153E-01
C70 -4.265200692797E-01 -1.928342012131E-02  7.310602618466E-02
C71 -4.265200692797E-01 -4.807165798787E-01 -4.268939738153E-01
C72  4.265200692797E-01  1.928342012131E-02 -7.310602618466E-02
C73  3.519315968943E-01  4.668556261763E-01  3.578514255769E-01
C74 -3.519315968943E-01 -3.314437382369E-02  1.421485744231E-01
C75 -3.519315968943E-01 -4.668556261763E-01 -3.578514255769E-01
C76  3.519315968943E-01  3.314437382369E-02 -1.421485744231E-01
H77  3.423077320427E-01  4.263969060662E-01  2.024399662597E-01
H78 -3.423077320427E-01 -7.360309393380E-02  2.975600337403E-01
H79 -3.423077320427E-01 -4.263969060662E-01 -2.024399662597E-01
H80  3.423077320427E-01  7.360309393380E-02 -2.975600337403E-01
C81 -4.861505854462E-01 -4.400886578166E-01 -3.029201997825E-01
C82  4.861505854462E-01  5.991134218335E-02 -1.970798002175E-01
C83  4.861505854462E-01  4.400886578166E-01  3.029201997825E-01
C84 -4.861505854462E-01 -5.991134218335E-02  1.970798002175E-01
H85 -4.755612446033E-01 -3.931952553828E-01 -1.505525227799E-01
H86  4.755612446033E-01  1.068047446172E-01 -3.494474772201E-01
H87  4.755612446033E-01  3.931952553828E-01  1.505525227799E-01
H88 -4.755612446033E-01 -1.068047446172E-01  3.494474772201E-01


#===END

data_OPT_STEP_38

_symmetry_space_group_name_H-M 'P 1'
_cell_length_a     18.08192016
_cell_length_b      8.09326925
_cell_length_c      6.56550555
_cell_angle_alpha   90.000000
_cell_angle_beta   90.597628
_cell_angle_gamma   90.000000

loop_
_atom_site_label
_atom_site_fract_x
_atom_site_fract_y
_atom_site_fract_z
C1  1.625526504898E-01 -3.879921837490E-01  4.750526891185E-01
C2 -1.625526504898E-01  1.120078162510E-01  2.494731088150E-02
C3 -1.625526504898E-01  3.879921837490E-01 -4.750526891185E-01
C4  1.625526504898E-01 -1.120078162510E-01 -2.494731088150E-02
H5  1.775848256013E-01 -2.954251489578E-01 -4.128396836208E-01
H6 -1.775848256013E-01  2.045748510422E-01 -8.716031637922E-02
H7 -1.775848256013E-01  2.954251489578E-01  4.128396836208E-01
H8  1.775848256013E-01 -2.045748510422E-01  8.716031637922E-02
C9  9.011782823215E-02 -3.933861971978E-01  4.028324548084E-01
C10 -9.011782823215E-02  1.066138028022E-01  9.716754519156E-02
C11 -9.011782823215E-02  3.933861971978E-01 -4.028324548084E-01
C12  9.011782823215E-02 -1.066138028022E-01 -9.716754519156E-02
H13  4.995514132853E-02 -3.071904362592E-01  4.624978367454E-01
H14 -4.995514132853E-02  1.928095637408E-01  3.750216325458E-02
H15 -4.995514132853E-02  3.071904362592E-01 -4.624978367454E-01
H16  4.995514132853E-02 -1.928095637408E-01 -3.750216325458E-02
C17  6.926908926283E-02  4.913650353121E-01  2.558078260238E-01
C18 -6.926908926283E-02 -8.634964687891E-03  2.441921739762E-01
C19 -6.926908926283E-02 -4.913650353121E-01 -2.558078260238E-01
C20  6.926908926283E-02  8.634964687890E-03 -2.441921739762E-01
H21  1.253006211182E-02  4.865359512762E-01  2.012497434488E-01
H22 -1.253006211182E-02 -1.346404872384E-02  2.987502565512E-01
H23 -1.253006211182E-02 -4.865359512762E-01 -2.012497434488E-01
H24  1.253006211182E-02  1.346404872384E-02 -2.987502565512E-01
C25  1.217546839265E-01  3.814470101562E-01  1.816401845739E-01
C26 -1.217546839265E-01 -1.185529898438E-01  3.183598154261E-01
C27 -1.217546839265E-01 -3.814470101562E-01 -1.816401845739E-01
C28  1.217546839265E-01  1.185529898438E-01 -3.183598154261E-01
H29  1.065607294173E-01  2.901653237040E-01  6.799858216849E-02
H30 -1.065607294173E-01 -2.098346762960E-01  4.320014178315E-01
H31 -1.065607294173E-01 -2.901653237040E-01 -6.799858216849E-02
H32  1.065607294173E-01  2.098346762960E-01 -4.320014178315E-01
C33  1.941078721333E-01  3.863491146952E-01  2.547305500530E-01
C34 -1.941078721333E-01 -1.136508853048E-01  2.452694499470E-01
C35 -1.941078721333E-01 -3.863491146952E-01 -2.547305500530E-01
C36  1.941078721333E-01  1.136508853048E-01 -2.452694499470E-01
H37  2.336377591412E-01  2.969137366815E-01  1.992448460059E-01
H38 -2.336377591412E-01 -2.030862633185E-01  3.007551539941E-01
H39 -2.336377591412E-01 -2.969137366815E-01 -1.992448460059E-01
H40  2.336377591412E-01  2.030862633185E-01 -3.007551539941E-01
C41  2.160463506894E-01 -4.981013318812E-01  4.024451532107E-01
C42 -2.160463506894E-01  1.898668118846E-03  9.755484678927E-02
C43 -2.160463506894E-01  4.981013318812E-01 -4.024451532107E-01
C44  2.160463506894E-01 -1.898668118846E-03 -9.755484678927E-02
C45  2.933655419363E-01 -4.906501897190E-01  4.789221242831E-01
C46 -2.933655419363E-01  9.349810281001E-03  2.107787571689E-02
C47 -2.933655419363E-01  4.906501897190E-01 -4.789221242831E-01
C48  2.933655419363E-01 -9.349810281001E-03 -2.107787571689E-02
C49  3.086620353450E-01 -4.343868047299E-01 -3.181245690266E-01
C50 -3.086620353450E-01  6.561319527011E-02 -1.818754309734E-01
C51 -3.086620353450E-01  4.343868047299E-01  3.181245690266E-01
C52  3.086620353450E-01 -6.561319527011E-02  1.818754309734E-01
H53  2.629800137744E-01 -4.054119762912E-01 -2.189462713747E-01
H54 -2.629800137744E-01  9.458802370875E-02 -2.810537286253E-01
H55 -2.629800137744E-01  4.054119762912E-01  2.189462713747E-01
H56  2.629800137744E-01 -9.458802370875E-02  2.810537286253E-01
C57  3.792312230693E-01 -4.182614844363E-01 -2.465992805265E-01
C58 -3.792312230693E-01  8.173851556370E-02 -2.534007194735E-01
C59 -3.792312230693E-01  4.182614844363E-01  2.465992805265E-01
C60  3.792312230693E-01 -8.173851556370E-02  2.534007194735E-01
H61  3.893237381094E-01 -3.741147930749E-01 -9.293634451990E-02
H62 -3.893237381094E-01  1.258852069251E-01 -4.070636554801E-01
H63 -3.893237381094E-01  3.741147930749E-01  9.293634451990E-02
H64  3.893237381094E-01 -1.258852069251E-01  4.070636554801E-01
C65  4.409407884163E-01 -4.582893900528E-01 -3.706853503773E-01
C66 -4.409407884163E-01  4.171060994717E-02 -1.293146496227E-01
C67 -4.409407884163E-01  4.582893900528E-01  3.706853503773E-01
C68  4.409407884163E-01 -4.171060994717E-02  1.293146496227E-01
C69  4.265033444140E-01  4.806876813364E-01  4.269877003884E-01
C70 -4.265033444140E-01 -1.931231866355E-02  7.301229961158E-02
C71 -4.265033444140E-01 -4.806876813364E-01 -4.269877003884E-01
C72  4.265033444140E-01  1.931231866355E-02 -7.301229961158E-02
C73  3.518981676501E-01  4.668706020601E-01  3.580079678608E-01
C74 -3.518981676501E-01 -3.312939793993E-02  1.419920321392E-01
C75 -3.518981676501E-01 -4.668706020601E-01 -3.580079678608E-01
C76  3.518981676501E-01  3.312939793993E-02 -1.419920321392E-01
H77  3.422849545986E-01  4.263763733921E-01  2.025881110095E-01
H78 -3.422849545986E-01 -7.362362660792E-02  2.974118889905E-01
H79 -3.422849545986E-01 -4.263763733921E-01 -2.025881110095E-01
H80  3.422849545986E-01  7.362362660792E-02 -2.974118889905E-01
C81 -4.861629668620E-01 -4.400690650455E-01 -3.028992309516E-01
C82  4.861629668620E-01  5.993093495450E-02 -1.971007690484E-01
C83  4.861629668620E-01  4.400690650455E-01  3.028992309516E-01
C84 -4.861629668620E-01 -5.993093495451E-02  1.971007690484E-01
H85 -4.755856901413E-01 -3.930322097375E-01 -1.505711354736E-01
H86  4.755856901413E-01  1.069677902625E-01 -3.494288645264E-01
H87  4.755856901413E-01  3.930322097375E-01  1.505711354736E-01
H88 -4.755856901413E-01 -1.069677902625E-01  3.494288645264E-01


#===END

data_OPT_STEP_39

_symmetry_space_group_name_H-M 'P 1'
_cell_length_a     18.08404932
_cell_length_b      8.09741539
_cell_length_c      6.56179814
_cell_angle_alpha   90.000000
_cell_angle_beta   90.651571
_cell_angle_gamma   90.000000

loop_
_atom_site_label
_atom_site_fract_x
_atom_site_fract_y
_atom_site_fract_z
C1  1.625767081614E-01 -3.879999966469E-01  4.750380982036E-01
C2 -1.625767081614E-01  1.120000033531E-01  2.496190179638E-02
C3 -1.625767081614E-01  3.879999966469E-01 -4.750380982036E-01
C4  1.625767081614E-01 -1.120000033531E-01 -2.496190179638E-02
H5  1.776238346281E-01 -2.955736654122E-01 -4.126858338394E-01
H6 -1.776238346281E-01  2.044263345878E-01 -8.731416616060E-02
H7 -1.776238346281E-01  2.955736654122E-01  4.126858338394E-01
H8  1.776238346281E-01 -2.044263345878E-01  8.731416616060E-02
C9  9.012331567904E-02 -3.934295011400E-01  4.027713287952E-01
C10 -9.012331567904E-02  1.065704988600E-01  9.722867120480E-02
C11 -9.012331567904E-02  3.934295011400E-01 -4.027713287952E-01
C12  9.012331567904E-02 -1.065704988600E-01 -9.722867120480E-02
H13  4.997037426660E-02 -3.073681008986E-01  4.625333848442E-01
H14 -4.997037426660E-02  1.926318991014E-01  3.746661515583E-02
H15 -4.997037426660E-02  3.073681008986E-01 -4.625333848442E-01
H16  4.997037426660E-02 -1.926318991014E-01 -3.746661515583E-02
C17  6.923439143547E-02  4.914036730924E-01  2.556123845680E-01
C18 -6.923439143547E-02 -8.596326907604E-03  2.443876154320E-01
C19 -6.923439143547E-02 -4.914036730924E-01 -2.556123845680E-01
C20  6.923439143547E-02  8.596326907604E-03 -2.443876154320E-01
H21  1.248456531166E-02  4.866080555531E-01  2.010060318498E-01
H22 -1.248456531166E-02 -1.339194444687E-02  2.989939681502E-01
H23 -1.248456531166E-02 -4.866080555531E-01 -2.010060318498E-01
H24  1.248456531166E-02  1.339194444686E-02 -2.989939681502E-01
C25  1.216981054407E-01  3.816119195660E-01  1.813438666018E-01
C26 -1.216981054407E-01 -1.183880804340E-01  3.186561333982E-01
C27 -1.216981054407E-01 -3.816119195660E-01 -1.813438666018E-01
C28  1.216981054407E-01  1.183880804340E-01 -3.186561333982E-01
H29  1.064785130019E-01  2.903711602908E-01  6.761010733894E-02
H30 -1.064785130019E-01 -2.096288397092E-01  4.323898926611E-01
H31 -1.064785130019E-01 -2.903711602908E-01 -6.761010733894E-02
H32  1.064785130019E-01  2.096288397092E-01 -4.323898926611E-01
C33  1.940646484633E-01  3.865139312621E-01  2.545108943055E-01
C34 -1.940646484633E-01 -1.134860687379E-01  2.454891056945E-01
C35 -1.940646484633E-01 -3.865139312621E-01 -2.545108943055E-01
C36  1.940646484633E-01  1.134860687379E-01 -2.454891056945E-01
H37  2.335755402108E-01  2.971516757488E-01  1.989449707291E-01
H38 -2.335755402108E-01 -2.028483242512E-01  3.010550292709E-01
H39 -2.335755402108E-01 -2.971516757488E-01 -1.989449707291E-01
H40  2.335755402108E-01  2.028483242512E-01 -3.010550292709E-01
C41  2.160461342657E-01 -4.980255912474E-01  4.023667587691E-01
C42 -2.160461342657E-01  1.974408752640E-03  9.763324123092E-02
C43 -2.160461342657E-01  4.980255912474E-01 -4.023667587691E-01
C44  2.160461342657E-01 -1.974408752640E-03 -9.763324123092E-02
C45  2.933787799481E-01 -4.906098396838E-01  4.789253460627E-01
C46 -2.933787799481E-01  9.390160316224E-03  2.107465393735E-02
C47 -2.933787799481E-01  4.906098396838E-01 -4.789253460627E-01
C48  2.933787799481E-01 -9.390160316224E-03 -2.107465393735E-02
C49  3.087465735729E-01 -4.342746021521E-01 -3.180463704127E-01
C50 -3.087465735729E-01  6.572539784786E-02 -1.819536295873E-01
C51 -3.087465735729E-01  4.342746021521E-01  3.180463704127E-01
C52  3.087465735729E-01 -6.572539784786E-02  1.819536295873E-01
H53  2.631058035755E-01 -4.052201770930E-01 -2.188332905618E-01
H54 -2.631058035755E-01  9.477982290703E-02 -2.811667094382E-01
H55 -2.631058035755E-01  4.052201770930E-01  2.188332905618E-01
H56  2.631058035755E-01 -9.477982290703E-02  2.811667094382E-01
C57  3.793346631967E-01 -4.182453056184E-01 -2.464554210373E-01
C58 -3.793346631967E-01  8.175469438163E-02 -2.535445789627E-01
C59 -3.793346631967E-01  4.182453056184E-01  2.464554210373E-01
C60  3.793346631967E-01 -8.175469438163E-02  2.535445789627E-01
H61  3.894811963113E-01 -3.740533795001E-01 -9.273898494019E-02
H62 -3.894811963113E-01  1.259466204999E-01 -4.072610150598E-01
H63 -3.894811963113E-01  3.740533795001E-01  9.273898494019E-02
H64  3.894811963113E-01 -1.259466204999E-01  4.072610150598E-01
C65  4.409937882299E-01 -4.583384160944E-01 -3.705856116492E-01
C66 -4.409937882299E-01  4.166158390562E-02 -1.294143883508E-01
C67 -4.409937882299E-01  4.583384160944E-01  3.705856116492E-01
C68  4.409937882299E-01 -4.166158390562E-02  1.294143883508E-01
C69  4.264853249014E-01  4.806455035354E-01  4.269830765365E-01
C70 -4.264853249014E-01 -1.935449646457E-02  7.301692346349E-02
C71 -4.264853249014E-01 -4.806455035354E-01 -4.269830765365E-01
C72  4.264853249014E-01  1.935449646457E-02 -7.301692346349E-02
C73  3.518631856960E-01  4.668244886421E-01  3.579859075658E-01
C74 -3.518631856960E-01 -3.317551135788E-02  1.420140924342E-01
C75 -3.518631856960E-01 -4.668244886421E-01 -3.579859075658E-01
C76  3.518631856960E-01  3.317551135788E-02 -1.420140924342E-01
H77  3.422018528854E-01  4.262806665281E-01  2.025042591065E-01
H78 -3.422018528854E-01 -7.371933347186E-02  2.974957408935E-01
H79 -3.422018528854E-01 -4.262806665281E-01 -2.025042591065E-01
H80  3.422018528854E-01  7.371933347186E-02 -2.974957408935E-01
C81 -4.860936055661E-01 -4.400411502190E-01 -3.028146913286E-01
C82  4.860936055661E-01  5.995884978095E-02 -1.971853086714E-01
C83  4.860936055661E-01  4.400411502190E-01  3.028146913286E-01
C84 -4.860936055661E-01 -5.995884978095E-02  1.971853086714E-01
H85 -4.754661776249E-01 -3.930436161289E-01 -1.503948960585E-01
H86  4.754661776249E-01  1.069563838711E-01 -3.496051039415E-01
H87  4.754661776249E-01  3.930436161289E-01  1.503948960585E-01
H88 -4.754661776249E-01 -1.069563838711E-01  3.496051039415E-01


#===END

data_OPT_STEP_40

_symmetry_space_group_name_H-M 'P 1'
_cell_length_a     18.08171001
_cell_length_b      8.11670257
_cell_length_c      6.54721061
_cell_angle_alpha   90.000000
_cell_angle_beta   90.771715
_cell_angle_gamma   90.000000

loop_
_atom_site_label
_atom_site_fract_x
_atom_site_fract_y
_atom_site_fract_z
C1  1.625140272295E-01 -3.881763119794E-01  4.748777512018E-01
C2 -1.625140272295E-01  1.118236880206E-01  2.512224879822E-02
C3 -1.625140272295E-01  3.881763119794E-01 -4.748777512018E-01
C4  1.625140272295E-01 -1.118236880206E-01 -2.512224879822E-02
H5  1.776344585164E-01 -2.959618226716E-01 -4.126154344781E-01
H6 -1.776344585164E-01  2.040381773284E-01 -8.738456552195E-02
H7 -1.776344585164E-01  2.959618226716E-01  4.126154344781E-01
H8  1.776344585164E-01 -2.040381773284E-01  8.738456552195E-02
C9  8.999279879351E-02 -3.936700963214E-01  4.025027067260E-01
C10 -8.999279879351E-02  1.063299036786E-01  9.749729327396E-02
C11 -8.999279879351E-02  3.936700963214E-01 -4.025027067260E-01
C12  8.999279879351E-02 -1.063299036786E-01 -9.749729327396E-02
H13  4.987537055787E-02 -3.078596539736E-01  4.623927483432E-01
H14 -4.987537055787E-02  1.921403460264E-01  3.760725165680E-02
H15 -4.987537055787E-02  3.078596539736E-01 -4.623927483432E-01
H16  4.987537055787E-02 -1.921403460264E-01 -3.760725165680E-02
C17  6.897925042069E-02  4.913842339484E-01  2.550762302467E-01
C18 -6.897925042069E-02 -8.615766051571E-03  2.449237697533E-01
C19 -6.897925042069E-02 -4.913842339484E-01 -2.550762302467E-01
C20  6.897925042069E-02  8.615766051571E-03 -2.449237697533E-01
H21  1.216810261758E-02  4.866536225201E-01  2.004053851312E-01
H22 -1.216810261758E-02 -1.334637747986E-02  2.995946148688E-01
H23 -1.216810261758E-02 -4.866536225201E-01 -2.004053851312E-01
H24  1.216810261758E-02  1.334637747986E-02 -2.995946148688E-01
C25  1.213969071171E-01  3.818828145443E-01  1.806331115750E-01
C26 -1.213969071171E-01 -1.181171854557E-01  3.193668884250E-01
C27 -1.213969071171E-01 -3.818828145443E-01 -1.806331115750E-01
C28  1.213969071171E-01  1.181171854557E-01 -3.193668884250E-01
H29  1.060975744612E-01  2.907889018694E-01  6.668796138917E-02
H30 -1.060975744612E-01 -2.092110981306E-01  4.333120386108E-01
H31 -1.060975744612E-01 -2.907889018694E-01 -6.668796138917E-02
H32  1.060975744612E-01  2.092110981306E-01 -4.333120386108E-01
C33  1.938294254588E-01  3.867776230305E-01  2.539775902482E-01
C34 -1.938294254588E-01 -1.132223769695E-01  2.460224097518E-01
C35 -1.938294254588E-01 -3.867776230305E-01 -2.539775902482E-01
C36  1.938294254588E-01  1.132223769695E-01 -2.460224097518E-01
H37  2.332913223239E-01  2.975640185976E-01  1.983117826563E-01
H38 -2.332913223239E-01 -2.024359814024E-01  3.016882173437E-01
H39 -2.332913223239E-01 -2.975640185976E-01 -1.983117826563E-01
H40  2.332913223239E-01  2.024359814024E-01 -3.016882173437E-01
C41  2.159341383400E-01 -4.979946010923E-01  4.021221486689E-01
C42 -2.159341383400E-01  2.005398907656E-03  9.787785133110E-02
C43 -2.159341383400E-01  4.979946010923E-01 -4.021221486689E-01
C44  2.159341383400E-01 -2.005398907656E-03 -9.787785133110E-02
C45  2.933343258474E-01 -4.905308413555E-01  4.788433618603E-01
C46 -2.933343258474E-01  9.469158644475E-03  2.115663813973E-02
C47 -2.933343258474E-01  4.905308413555E-01 -4.788433618603E-01
C48  2.933343258474E-01 -9.469158644476E-03 -2.115663813973E-02
C49  3.088737594286E-01 -4.338131306046E-01 -3.178951189528E-01
C50 -3.088737594286E-01  6.618686939541E-02 -1.821048810472E-01
C51 -3.088737594286E-01  4.338131306046E-01  3.178951189528E-01
C52  3.088737594286E-01 -6.618686939541E-02  1.821048810472E-01
H53  2.633169002737E-01 -4.044498604233E-01 -2.185710616245E-01
H54 -2.633169002737E-01  9.555013957671E-02 -2.814289383755E-01
H55 -2.633169002737E-01  4.044498604233E-01  2.185710616245E-01
H56  2.633169002737E-01 -9.555013957671E-02  2.814289383755E-01
C57  3.795292863533E-01 -4.177540026879E-01 -2.461785089509E-01
C58 -3.795292863533E-01  8.224599731208E-02 -2.538214910491E-01
C59 -3.795292863533E-01  4.177540026879E-01  2.461785089509E-01
C60  3.795292863533E-01 -8.224599731208E-02  2.538214910491E-01
H61  3.898179786261E-01 -3.732522850263E-01 -9.230349743985E-02
H62 -3.898179786261E-01  1.267477149737E-01 -4.076965025601E-01
H63 -3.898179786261E-01  3.732522850263E-01  9.230349743985E-02
H64  3.898179786261E-01 -1.267477149737E-01  4.076965025601E-01
C65  4.410941765098E-01 -4.581614951807E-01 -3.704166034555E-01
C66 -4.410941765098E-01  4.183850481927E-02 -1.295833965445E-01
C67 -4.410941765098E-01  4.581614951807E-01  3.704166034555E-01
C68  4.410941765098E-01 -4.183850481927E-02  1.295833965445E-01
C69  4.264148515234E-01  4.805337904167E-01  4.268928556830E-01
C70 -4.264148515234E-01 -1.946620958325E-02  7.310714431696E-02
C71 -4.264148515234E-01 -4.805337904167E-01 -4.268928556830E-01
C72  4.264148515234E-01  1.946620958325E-02 -7.310714431696E-02
C73  3.517259126833E-01  4.666117991379E-01  3.578094360639E-01
C74 -3.517259126833E-01 -3.338820086210E-02  1.421905639361E-01
C75 -3.517259126833E-01 -4.666117991379E-01 -3.578094360639E-01
C76  3.517259126833E-01  3.338820086210E-02 -1.421905639361E-01
H77  3.419292095719E-01  4.257905156652E-01  2.021275996032E-01
H78 -3.419292095719E-01 -7.420948433484E-02  2.978724003968E-01
H79 -3.419292095719E-01 -4.257905156652E-01 -2.021275996032E-01
H80  3.419292095719E-01  7.420948433484E-02 -2.978724003968E-01
C81 -4.859293265040E-01 -4.397158983395E-01 -3.025836071113E-01
C82  4.859293265040E-01  6.028410166054E-02 -1.974163928887E-01
C83  4.859293265040E-01  4.397158983395E-01  3.025836071113E-01
C84 -4.859293265040E-01 -6.028410166054E-02  1.974163928887E-01
H85 -4.751750413643E-01 -3.925825645965E-01 -1.499361256211E-01
H86  4.751750413643E-01  1.074174354035E-01 -3.500638743789E-01
H87  4.751750413643E-01  3.925825645965E-01  1.499361256211E-01
H88 -4.751750413643E-01 -1.074174354035E-01  3.500638743789E-01


#===END

data_OPT_STEP_41

_symmetry_space_group_name_H-M 'P 1'
_cell_length_a     18.07849430
_cell_length_b      8.14628954
_cell_length_c      6.52592608
_cell_angle_alpha   90.000000
_cell_angle_beta   90.993371
_cell_angle_gamma   90.000000

loop_
_atom_site_label
_atom_site_fract_x
_atom_site_fract_y
_atom_site_fract_z
C1  1.624243946674E-01 -3.883609915134E-01  4.747657753260E-01
C2 -1.624243946674E-01  1.116390084866E-01  2.523422467404E-02
C3 -1.624243946674E-01  3.883609915134E-01 -4.747657753260E-01
C4  1.624243946674E-01 -1.116390084866E-01 -2.523422467404E-02
H5  1.777226042872E-01 -2.962006733732E-01 -4.127067731463E-01
H6 -1.777226042872E-01  2.037993266268E-01 -8.729322685367E-02
H7 -1.777226042872E-01  2.962006733732E-01  4.127067731463E-01
H8  1.777226042872E-01 -2.037993266268E-01  8.729322685367E-02
C9  8.978612295936E-02 -3.939104243679E-01  4.021752764561E-01
C10 -8.978612295936E-02  1.060895756321E-01  9.782472354393E-02
C11 -8.978612295936E-02  3.939104243679E-01 -4.021752764561E-01
C12  8.978612295936E-02 -1.060895756321E-01 -9.782472354393E-02
H13  4.974807880321E-02 -3.083015267487E-01  4.620167072721E-01
H14 -4.974807880321E-02  1.916984732513E-01  3.798329272786E-02
H15 -4.974807880321E-02  3.083015267487E-01 -4.620167072721E-01
H16  4.974807880321E-02 -1.916984732513E-01 -3.798329272786E-02
C17  6.852609349470E-02  4.912959038744E-01  2.546162779101E-01
C18 -6.852609349470E-02 -8.704096125569E-03  2.453837220899E-01
C19 -6.852609349470E-02 -4.912959038744E-01 -2.546162779101E-01
C20  6.852609349470E-02  8.704096125569E-03 -2.453837220899E-01
H21  1.162163730724E-02  4.866053948084E-01  1.998032992165E-01
H22 -1.162163730724E-02 -1.339460519159E-02  3.001967007835E-01
H23 -1.162163730724E-02 -4.866053948084E-01 -1.998032992165E-01
H24  1.162163730724E-02  1.339460519159E-02 -3.001967007835E-01
C25  1.208121433427E-01  3.819450162598E-01  1.803196555761E-01
C26 -1.208121433427E-01 -1.180549837402E-01  3.196803444239E-01
C27 -1.208121433427E-01 -3.819450162598E-01 -1.803196555761E-01
C28  1.208121433427E-01  1.180549837402E-01 -3.196803444239E-01
H29  1.053392153975E-01  2.909398273763E-01  6.628954691668E-02
H30 -1.053392153975E-01 -2.090601726237E-01  4.337104530833E-01
H31 -1.053392153975E-01 -2.909398273763E-01 -6.628954691668E-02
H32  1.053392153975E-01  2.090601726237E-01 -4.337104530833E-01
C33  1.933627892959E-01  3.868778336321E-01  2.539103232346E-01
C34 -1.933627892959E-01 -1.131221663679E-01  2.460896767654E-01
C35 -1.933627892959E-01 -3.868778336321E-01 -2.539103232346E-01
C36  1.933627892959E-01  1.131221663679E-01 -2.460896767654E-01
H37  2.327156232587E-01  2.977522440622E-01  1.983864835107E-01
H38 -2.327156232587E-01 -2.022477559378E-01  3.016135164893E-01
H39 -2.327156232587E-01 -2.977522440622E-01 -1.983864835107E-01
H40  2.327156232587E-01  2.022477559378E-01 -3.016135164893E-01
C41  2.157255977960E-01 -4.979947565479E-01  4.021321739592E-01
C42 -2.157255977960E-01  2.005243452145E-03  9.786782604084E-02
C43 -2.157255977960E-01  4.979947565479E-01 -4.021321739592E-01
C44  2.157255977960E-01 -2.005243452145E-03 -9.786782604084E-02
C45  2.932647261991E-01 -4.904143199287E-01  4.789903811461E-01
C46 -2.932647261991E-01  9.585680071340E-03  2.100961885395E-02
C47 -2.932647261991E-01  4.904143199287E-01 -4.789903811461E-01
C48  2.932647261991E-01 -9.585680071340E-03 -2.100961885395E-02
C49  3.091416770923E-01 -4.332020059908E-01 -3.174030120155E-01
C50 -3.091416770923E-01  6.679799400922E-02 -1.825969879845E-01
C51 -3.091416770923E-01  4.332020059908E-01  3.174030120155E-01
C52  3.091416770923E-01 -6.679799400922E-02  1.825969879845E-01
H53  2.637341540303E-01 -4.035355658665E-01 -2.178404068195E-01
H54 -2.637341540303E-01  9.646443413349E-02 -2.821595931805E-01
H55 -2.637341540303E-01  4.035355658665E-01  2.178404068195E-01
H56  2.637341540303E-01 -9.646443413349E-02  2.821595931805E-01
C57  3.799246341227E-01 -4.169814163485E-01 -2.456370540878E-01
C58 -3.799246341227E-01  8.301858365145E-02 -2.543629459122E-01
C59 -3.799246341227E-01  4.169814163485E-01  2.456370540878E-01
C60  3.799246341227E-01 -8.301858365145E-02  2.543629459122E-01
H61  3.904679618357E-01 -3.720524567785E-01 -9.153587623536E-02
H62 -3.904679618357E-01  1.279475432215E-01 -4.084641237646E-01
H63 -3.904679618357E-01  3.720524567785E-01  9.153587623536E-02
H64  3.904679618357E-01 -1.279475432216E-01  4.084641237646E-01
C65  4.412956781672E-01 -4.577660747088E-01 -3.701522789615E-01
C66 -4.412956781672E-01  4.223392529123E-02 -1.298477210385E-01
C67 -4.412956781672E-01  4.577660747088E-01  3.701522789615E-01
C68  4.412956781672E-01 -4.223392529123E-02  1.298477210385E-01
C69  4.262848444344E-01  4.804505165271E-01  4.268368668639E-01
C70 -4.262848444344E-01 -1.954948347288E-02  7.316313313613E-02
C71 -4.262848444344E-01 -4.804505165271E-01 -4.268368668639E-01
C72  4.262848444344E-01  1.954948347288E-02 -7.316313313613E-02
C73  3.514722936909E-01  4.664313346041E-01  3.576887432730E-01
C74 -3.514722936909E-01 -3.356866539586E-02  1.423112567270E-01
C75 -3.514722936909E-01 -4.664313346041E-01 -3.576887432730E-01
C76  3.514722936909E-01  3.356866539586E-02 -1.423112567270E-01
H77  3.414353156777E-01  4.252212867479E-01  2.017097579499E-01
H78 -3.414353156777E-01 -7.477871325208E-02  2.982902420501E-01
H79 -3.414353156777E-01 -4.252212867479E-01 -2.017097579499E-01
H80  3.414353156777E-01  7.477871325208E-02 -2.982902420501E-01
C81 -4.856063989390E-01 -4.392618768227E-01 -3.022647631813E-01
C82  4.856063989390E-01  6.073812317733E-02 -1.977352368187E-01
C83  4.856063989390E-01  4.392618768227E-01  3.022647631813E-01
C84 -4.856063989390E-01 -6.073812317733E-02  1.977352368187E-01
H85 -4.746136282732E-01 -3.918040272581E-01 -1.493604464044E-01
H86  4.746136282732E-01  1.081959727419E-01 -3.506395535956E-01
H87  4.746136282732E-01  3.918040272581E-01  1.493604464044E-01
H88 -4.746136282732E-01 -1.081959727419E-01  3.506395535956E-01


#===END

data_OPT_STEP_42

_symmetry_space_group_name_H-M 'P 1'
_cell_length_a     18.07413401
_cell_length_b      8.15597967
_cell_length_c      6.51846919
_cell_angle_alpha   90.000000
_cell_angle_beta   91.020317
_cell_angle_gamma   90.000000

loop_
_atom_site_label
_atom_site_fract_x
_atom_site_fract_y
_atom_site_fract_z
C1  1.623358940162E-01 -3.885052636444E-01  4.747195974991E-01
C2 -1.623358940162E-01  1.114947363556E-01  2.528040250089E-02
C3 -1.623358940162E-01  3.885052636444E-01 -4.747195974991E-01
C4  1.623358940162E-01 -1.114947363556E-01 -2.528040250089E-02
H5  1.776665347479E-01 -2.963475337306E-01 -4.127510226143E-01
H6 -1.776665347479E-01  2.036524662694E-01 -8.724897738568E-02
H7 -1.776665347479E-01  2.963475337306E-01  4.127510226143E-01
H8  1.776665347479E-01 -2.036524662694E-01  8.724897738568E-02
C9  8.967014071268E-02 -3.940599428641E-01  4.020752443639E-01
C10 -8.967014071268E-02  1.059400571359E-01  9.792475563613E-02
C11 -8.967014071268E-02  3.940599428641E-01 -4.020752443639E-01
C12  8.967014071268E-02 -1.059400571359E-01 -9.792475563613E-02
H13  4.963055606156E-02 -3.085123688167E-01  4.619317304075E-01
H14 -4.963055606156E-02  1.914876311833E-01  3.806826959251E-02
H15 -4.963055606156E-02  3.085123688167E-01 -4.619317304075E-01
H16  4.963055606156E-02 -1.914876311833E-01 -3.806826959251E-02
C17  6.837793534286E-02  4.912244505750E-01  2.544552587024E-01
C18 -6.837793534286E-02 -8.775549425014E-03  2.455447412976E-01
C19 -6.837793534286E-02 -4.912244505750E-01 -2.544552587024E-01
C20  6.837793534286E-02  8.775549425014E-03 -2.455447412976E-01
H21  1.144755501122E-02  4.864882290901E-01  1.996159952309E-01
H22 -1.144755501122E-02 -1.351177090989E-02  3.003840047691E-01
H23 -1.144755501122E-02 -4.864882290901E-01 -1.996159952309E-01
H24  1.144755501122E-02  1.351177090989E-02 -3.003840047691E-01
C25  1.206661853799E-01  3.819484779884E-01  1.801756750603E-01
C26 -1.206661853799E-01 -1.180515220116E-01  3.198243249397E-01
C27 -1.206661853799E-01 -3.819484779884E-01 -1.801756750603E-01
C28  1.206661853799E-01  1.180515220116E-01 -3.198243249397E-01
H29  1.051692184128E-01  2.910498865069E-01  6.606171439423E-02
H30 -1.051692184128E-01 -2.089501134931E-01  4.339382856058E-01
H31 -1.051692184128E-01 -2.910498865069E-01 -6.606171439423E-02
H32  1.051692184128E-01  2.089501134931E-01 -4.339382856058E-01
C33  1.932487864344E-01  3.869074666232E-01  2.538161450162E-01
C34 -1.932487864344E-01 -1.130925333768E-01  2.461838549838E-01
C35 -1.932487864344E-01 -3.869074666232E-01 -2.538161450162E-01
C36  1.932487864344E-01  1.130925333768E-01 -2.461838549838E-01
H37  2.325973239675E-01  2.978594040195E-01  1.983266819010E-01
H38 -2.325973239675E-01 -2.021405959805E-01  3.016733180990E-01
H39 -2.325973239675E-01 -2.978594040195E-01 -1.983266819010E-01
H40  2.325973239675E-01  2.021405959805E-01 -3.016733180990E-01
C41  2.156394899192E-01 -4.980341811236E-01  4.020827453775E-01
C42 -2.156394899192E-01  1.965818876382E-03  9.791725462254E-02
C43 -2.156394899192E-01  4.980341811236E-01 -4.020827453775E-01
C44  2.156394899192E-01 -1.965818876383E-03 -9.791725462254E-02
C45  2.932127161171E-01 -4.903796901583E-01  4.789680032582E-01
C46 -2.932127161171E-01  9.620309841682E-03  2.103199674177E-02
C47 -2.932127161171E-01  4.903796901583E-01 -4.789680032582E-01
C48  2.932127161171E-01 -9.620309841682E-03 -2.103199674177E-02
C49  3.091403544860E-01 -4.329677092552E-01 -3.173193669515E-01
C50 -3.091403544860E-01  6.703229074478E-02 -1.826806330485E-01
C51 -3.091403544860E-01  4.329677092552E-01  3.173193669515E-01
C52  3.091403544860E-01 -6.703229074478E-02  1.826806330485E-01
H53  2.637451917518E-01 -4.032517994558E-01 -2.176758248581E-01
H54 -2.637451917518E-01  9.674820054419E-02 -2.823241751419E-01
H55 -2.637451917518E-01  4.032517994558E-01  2.176758248581E-01
H56  2.637451917518E-01 -9.674820054419E-02  2.823241751419E-01
C57  3.799532372829E-01 -4.165918687922E-01 -2.455533262055E-01
C58 -3.799532372829E-01  8.340813120785E-02 -2.544466737945E-01
C59 -3.799532372829E-01  4.165918687921E-01  2.455533262055E-01
C60  3.799532372829E-01 -8.340813120785E-02  2.544466737945E-01
H61  3.905371380449E-01 -3.714683657033E-01 -9.139157994856E-02
H62 -3.905371380449E-01  1.285316342967E-01 -4.086084200514E-01
H63 -3.905371380449E-01  3.714683657033E-01  9.139157994856E-02
H64  3.905371380449E-01 -1.285316342967E-01  4.086084200514E-01
C65  4.413104006078E-01 -4.575214655498E-01 -3.701354018119E-01
C66 -4.413104006078E-01  4.247853445023E-02 -1.298645981881E-01
C67 -4.413104006078E-01  4.575214655498E-01  3.701354018119E-01
C68  4.413104006078E-01 -4.247853445023E-02  1.298645981881E-01
C69  4.262490416720E-01  4.804320688014E-01  4.267905850172E-01
C70 -4.262490416720E-01 -1.956793119860E-02  7.320941498281E-02
C71 -4.262490416720E-01 -4.804320688014E-01 -4.267905850172E-01
C72  4.262490416720E-01  1.956793119860E-02 -7.320941498281E-02
C73  3.514039755693E-01  4.663762585694E-01  3.575884110001E-01
C74 -3.514039755693E-01 -3.362374143057E-02  1.424115889999E-01
C75 -3.514039755693E-01 -4.663762585694E-01 -3.575884110001E-01
C76  3.514039755693E-01  3.362374143057E-02 -1.424115889999E-01
H77  3.413274581258E-01  4.249881353201E-01  2.015252298654E-01
H78 -3.413274581258E-01 -7.501186467995E-02  2.984747701346E-01
H79 -3.413274581258E-01 -4.249881353201E-01 -2.015252298654E-01
H80  3.413274581258E-01  7.501186467995E-02 -2.984747701346E-01
C81 -4.855583498251E-01 -4.390352974361E-01 -3.021868854412E-01
C82  4.855583498251E-01  6.096470256393E-02 -1.978131145588E-01
C83  4.855583498251E-01  4.390352974361E-01  3.021868854412E-01
C84 -4.855583498251E-01 -6.096470256393E-02  1.978131145588E-01
H85 -4.745263128641E-01 -3.913753938084E-01 -1.492349200536E-01
H86  4.745263128641E-01  1.086246061916E-01 -3.507650799464E-01
H87  4.745263128641E-01  3.913753938084E-01  1.492349200536E-01
H88 -4.745263128641E-01 -1.086246061916E-01  3.507650799464E-01


#===END

data_OPT_STEP_43

_symmetry_space_group_name_H-M 'P 1'
_cell_length_a     18.07303687
_cell_length_b      8.16233750
_cell_length_c      6.51668525
_cell_angle_alpha   90.000000
_cell_angle_beta   91.043454
_cell_angle_gamma   90.000000

loop_
_atom_site_label
_atom_site_fract_x
_atom_site_fract_y
_atom_site_fract_z
C1  1.623349773847E-01 -3.883601623861E-01  4.745243895718E-01
C2 -1.623349773847E-01  1.116398376139E-01  2.547561042825E-02
C3 -1.623349773847E-01  3.883601623861E-01 -4.745243895718E-01
C4  1.623349773847E-01 -1.116398376139E-01 -2.547561042825E-02
H5  1.777206466311E-01 -2.960181053137E-01 -4.132342452741E-01
H6 -1.777206466311E-01  2.039818946863E-01 -8.676575472591E-02
H7 -1.777206466311E-01  2.960181053137E-01  4.132342452741E-01
H8  1.777206466311E-01 -2.039818946863E-01  8.676575472591E-02
C9  8.964837213153E-02 -3.939782185049E-01  4.019211359383E-01
C10 -8.964837213153E-02  1.060217814951E-01  9.807886406168E-02
C11 -8.964837213153E-02  3.939782185049E-01 -4.019211359383E-01
C12  8.964837213153E-02 -1.060217814951E-01 -9.807886406168E-02
H13  4.962022250654E-02 -3.083681823558E-01  4.616042618196E-01
H14 -4.962022250654E-02  1.916318176442E-01  3.839573818036E-02
H15 -4.962022250654E-02  3.083681823558E-01 -4.616042618196E-01
H16  4.962022250654E-02 -1.916318176442E-01 -3.839573818036E-02
C17  6.830106137247E-02  4.910860290286E-01  2.546561342229E-01
C18 -6.830106137247E-02 -8.913970971403E-03  2.453438657771E-01
C19 -6.830106137247E-02 -4.910860290286E-01 -2.546561342229E-01
C20  6.830106137247E-02  8.913970971403E-03 -2.453438657771E-01
H21  1.135657511348E-02  4.862574828470E-01  1.998509638645E-01
H22 -1.135657511348E-02 -1.374251715304E-02  3.001490361355E-01
H23 -1.135657511348E-02 -4.862574828470E-01 -1.998509638645E-01
H24  1.135657511348E-02  1.374251715304E-02 -3.001490361355E-01
C25  1.205498753504E-01  3.816414360766E-01  1.807124931167E-01
C26 -1.205498753504E-01 -1.183585639234E-01  3.192875068833E-01
C27 -1.205498753504E-01 -3.816414360766E-01 -1.807124931167E-01
C28  1.205498753504E-01  1.183585639234E-01 -3.192875068833E-01
H29  1.049987609281E-01  2.905712947520E-01  6.689571518575E-02
H30 -1.049987609281E-01 -2.094287052480E-01  4.331042848142E-01
H31 -1.049987609281E-01 -2.905712947520E-01 -6.689571518575E-02
H32  1.049987609281E-01  2.094287052480E-01 -4.331042848142E-01
C33  1.931559229667E-01  3.866942161261E-01  2.542881578171E-01
C34 -1.931559229667E-01 -1.133057838739E-01  2.457118421829E-01
C35 -1.931559229667E-01 -3.866942161261E-01 -2.542881578171E-01
C36  1.931559229667E-01  1.133057838739E-01 -2.457118421829E-01
H37  2.324794564287E-01  2.975362775833E-01  1.991058662930E-01
H38 -2.324794564287E-01 -2.024637224167E-01  3.008941337070E-01
H39 -2.324794564287E-01 -2.975362775833E-01 -1.991058662930E-01
H40  2.324794564287E-01  2.024637224167E-01 -3.008941337070E-01
C41  2.156027334516E-01 -4.980144996538E-01  4.021776992123E-01
C42 -2.156027334516E-01  1.985500346179E-03  9.782230078768E-02
C43 -2.156027334516E-01  4.980144996538E-01 -4.021776992123E-01
C44  2.156027334516E-01 -1.985500346179E-03 -9.782230078768E-02
C45  2.932006382117E-01 -4.902807051575E-01  4.790047528867E-01
C46 -2.932006382117E-01  9.719294842535E-03  2.099524711332E-02
C47 -2.932006382117E-01  4.902807051575E-01 -4.790047528867E-01
C48  2.932006382117E-01 -9.719294842535E-03 -2.099524711332E-02
C49  3.091726752381E-01 -4.327750896470E-01 -3.172942695410E-01
C50 -3.091726752381E-01  6.722491035296E-02 -1.827057304590E-01
C51 -3.091726752381E-01  4.327750896470E-01  3.172942695410E-01
C52  3.091726752381E-01 -6.722491035296E-02  1.827057304590E-01
H53  2.637870638513E-01 -4.030380197219E-01 -2.176434822544E-01
H54 -2.637870638513E-01  9.696198027809E-02 -2.823565177456E-01
H55 -2.637870638513E-01  4.030380197219E-01  2.176434822544E-01
H56  2.637870638513E-01 -9.696198027809E-02  2.823565177456E-01
C57  3.800028317993E-01 -4.163613602128E-01 -2.455581022545E-01
C58 -3.800028317993E-01  8.363863978722E-02 -2.544418977455E-01
C59 -3.800028317993E-01  4.163613602128E-01  2.455581022545E-01
C60  3.800028317993E-01 -8.363863978722E-02  2.544418977455E-01
H61  3.906120808426E-01 -3.711968168301E-01 -9.139626891987E-02
H62 -3.906120808426E-01  1.288031831699E-01 -4.086037310801E-01
H63 -3.906120808426E-01  3.711968168301E-01  9.139626891987E-02
H64  3.906120808426E-01 -1.288031831699E-01  4.086037310801E-01
C65  4.413349975239E-01 -4.573686873514E-01 -3.701587942017E-01
C66 -4.413349975239E-01  4.263131264862E-02 -1.298412057983E-01
C67 -4.413349975239E-01  4.573686873514E-01  3.701587942017E-01
C68  4.413349975239E-01 -4.263131264862E-02  1.298412057983E-01
C69  4.262301442200E-01  4.804787975608E-01  4.267938687373E-01
C70 -4.262301442200E-01 -1.952120243916E-02  7.320613126269E-02
C71 -4.262301442200E-01 -4.804787975608E-01 -4.267938687373E-01
C72  4.262301442200E-01  1.952120243916E-02 -7.320613126269E-02
C73  3.513671299804E-01  4.664380512775E-01  3.575929984898E-01
C74 -3.513671299804E-01 -3.356194872252E-02  1.424070015102E-01
C75 -3.513671299804E-01 -4.664380512775E-01 -3.575929984898E-01
C76  3.513671299804E-01  3.356194872252E-02 -1.424070015102E-01
H77  3.412628977135E-01  4.249876906959E-01  2.015251889420E-01
H78 -3.412628977135E-01 -7.501230930412E-02  2.984748110580E-01
H79 -3.412628977135E-01 -4.249876906959E-01 -2.015251889420E-01
H80  3.412628977135E-01  7.501230930412E-02 -2.984748110580E-01
C81 -4.855154584808E-01 -4.389606216334E-01 -3.021993575608E-01
C82  4.855154584808E-01  6.103937836662E-02 -1.978006424392E-01
C83  4.855154584808E-01  4.389606216334E-01  3.021993575608E-01
C84 -4.855154584808E-01 -6.103937836662E-02  1.978006424392E-01
H85 -4.744520759107E-01 -3.912074969144E-01 -1.492755623934E-01
H86  4.744520759107E-01  1.087925030856E-01 -3.507244376066E-01
H87  4.744520759107E-01  3.912074969144E-01  1.492755623934E-01
H88 -4.744520759107E-01 -1.087925030856E-01  3.507244376066E-01


#===END

data_OPT_STEP_44

_symmetry_space_group_name_H-M 'P 1'
_cell_length_a     18.07465270
_cell_length_b      8.16119000
_cell_length_c      6.51643320
_cell_angle_alpha   90.000000
_cell_angle_beta   91.033482
_cell_angle_gamma   90.000000

loop_
_atom_site_label
_atom_site_fract_x
_atom_site_fract_y
_atom_site_fract_z
C1  1.623452257746E-01 -3.884337756133E-01  4.746115549345E-01
C2 -1.623452257746E-01  1.115662243867E-01  2.538844506552E-02
C3 -1.623452257746E-01  3.884337756133E-01 -4.746115549345E-01
C4  1.623452257746E-01 -1.115662243867E-01 -2.538844506552E-02
H5  1.777105001801E-01 -2.961336345972E-01 -4.130793786926E-01
H6 -1.777105001801E-01  2.038663654028E-01 -8.692062130741E-02
H7 -1.777105001801E-01  2.961336345972E-01  4.130793786926E-01
H8  1.777105001801E-01 -2.038663654028E-01  8.692062130741E-02
C9  8.966882343993E-02 -3.940718734523E-01  4.020078670932E-01
C10 -8.966882343993E-02  1.059281265477E-01  9.799213290679E-02
C11 -8.966882343993E-02  3.940718734523E-01 -4.020078670932E-01
C12  8.966882343993E-02 -1.059281265477E-01 -9.799213290679E-02
H13  4.962956863289E-02 -3.084880435260E-01  4.617408225783E-01
H14 -4.962956863289E-02  1.915119564740E-01  3.825917742167E-02
H15 -4.962956863289E-02  3.084880435260E-01 -4.617408225783E-01
H16  4.962956863289E-02 -1.915119564740E-01 -3.825917742167E-02
C17  6.835159200628E-02  4.910392444947E-01  2.546684016912E-01
C18 -6.835159200628E-02 -8.960755505344E-03  2.453315983088E-01
C19 -6.835159200628E-02 -4.910392444947E-01 -2.546684016912E-01
C20  6.835159200628E-02  8.960755505344E-03 -2.453315983088E-01
H21  1.141890100832E-02  4.861633587832E-01  1.998521099796E-01
H22 -1.141890100832E-02 -1.383664121685E-02  3.001478900204E-01
H23 -1.141890100832E-02 -4.861633587832E-01 -1.998521099796E-01
H24  1.141890100832E-02  1.383664121685E-02 -3.001478900204E-01
C25  1.206175294520E-01  3.816597147804E-01  1.806570338995E-01
C26 -1.206175294520E-01 -1.183402852196E-01  3.193429661005E-01
C27 -1.206175294520E-01 -3.816597147804E-01 -1.806570338995E-01
C28  1.206175294520E-01  1.183402852196E-01 -3.193429661005E-01
H29  1.050832171634E-01  2.906332839264E-01  6.678491897512E-02
H30 -1.050832171634E-01 -2.093667160736E-01  4.332150810249E-01
H31 -1.050832171634E-01 -2.906332839264E-01 -6.678491897512E-02
H32  1.050832171634E-01  2.093667160736E-01 -4.332150810249E-01
C33  1.932115160521E-01  3.867348379838E-01  2.542297518282E-01
C34 -1.932115160521E-01 -1.132651620162E-01  2.457702481718E-01
C35 -1.932115160521E-01 -3.867348379838E-01 -2.542297518282E-01
C36  1.932115160521E-01  1.132651620162E-01 -2.457702481718E-01
H37  2.325478060460E-01  2.976288555878E-01  1.989957501217E-01
H38 -2.325478060460E-01 -2.023711444122E-01  3.010042498783E-01
H39 -2.325478060460E-01 -2.976288555878E-01 -1.989957501217E-01
H40  2.325478060460E-01  2.023711444122E-01 -3.010042498783E-01
C41  2.156308502832E-01 -4.980163602719E-01  4.021907472943E-01
C42 -2.156308502832E-01  1.983639728089E-03  9.780925270571E-02
C43 -2.156308502832E-01  4.980163602719E-01 -4.021907472943E-01
C44  2.156308502832E-01 -1.983639728089E-03 -9.780925270571E-02
C45  2.932185609327E-01 -4.902827596681E-01  4.790239623227E-01
C46 -2.932185609327E-01  9.717240331857E-03  2.097603767735E-02
C47 -2.932185609327E-01  4.902827596681E-01 -4.790239623227E-01
C48  2.932185609327E-01 -9.717240331857E-03 -2.097603767735E-02
C49  3.091779607631E-01 -4.328158395421E-01 -3.172520925515E-01
C50 -3.091779607631E-01  6.718416045793E-02 -1.827479074485E-01
C51 -3.091779607631E-01  4.328158395421E-01  3.172520925515E-01
C52  3.091779607631E-01 -6.718416045793E-02  1.827479074485E-01
H53  2.637918255308E-01 -4.030968836379E-01 -2.175888844506E-01
H54 -2.637918255308E-01  9.690311636212E-02 -2.824111155494E-01
H55 -2.637918255308E-01  4.030968836379E-01  2.175888844506E-01
H56  2.637918255308E-01 -9.690311636212E-02  2.824111155494E-01
C57  3.799978717915E-01 -4.163955607400E-01 -2.455241273635E-01
C58 -3.799978717915E-01  8.360443925998E-02 -2.544758726365E-01
C59 -3.799978717915E-01  4.163955607400E-01  2.455241273635E-01
C60  3.799978717915E-01 -8.360443925998E-02  2.544758726365E-01
H61  3.905940577353E-01 -3.712583288134E-01 -9.134451469694E-02
H62 -3.905940577353E-01  1.287416711866E-01 -4.086554853031E-01
H63 -3.905940577353E-01  3.712583288134E-01  9.134451469694E-02
H64  3.905940577353E-01 -1.287416711866E-01  4.086554853031E-01
C65  4.413324931640E-01 -4.573796249749E-01 -3.701441562983E-01
C66 -4.413324931640E-01  4.262037502507E-02 -1.298558437017E-01
C67 -4.413324931640E-01  4.573796249749E-01  3.701441562983E-01
C68  4.413324931640E-01 -4.262037502507E-02  1.298558437017E-01
C69  4.262412659510E-01  4.804871596515E-01  4.267968966220E-01
C70 -4.262412659510E-01 -1.951284034850E-02  7.320310337799E-02
C71 -4.262412659510E-01 -4.804871596515E-01 -4.267968966220E-01
C72  4.262412659510E-01  1.951284034850E-02 -7.320310337799E-02
C73  3.513892237909E-01  4.664586281404E-01  3.575950375566E-01
C74 -3.513892237909E-01 -3.354137185965E-02  1.424049624434E-01
C75 -3.513892237909E-01 -4.664586281404E-01 -3.575950375566E-01
C76  3.513892237909E-01  3.354137185965E-02 -1.424049624434E-01
H77  3.412973669309E-01  4.250184964689E-01  2.015189875736E-01
H78 -3.412973669309E-01 -7.498150353111E-02  2.984810124264E-01
H79 -3.412973669309E-01 -4.250184964689E-01 -2.015189875736E-01
H80  3.412973669309E-01  7.498150353111E-02 -2.984810124264E-01
C81 -4.855284726181E-01 -4.389814749083E-01 -3.021855591768E-01
C82  4.855284726181E-01  6.101852509168E-02 -1.978144408232E-01
C83  4.855284726181E-01  4.389814749083E-01  3.021855591768E-01
C84 -4.855284726181E-01 -6.101852509168E-02  1.978144408232E-01
H85 -4.744733755551E-01 -3.912381362239E-01 -1.492549028310E-01
H86  4.744733755551E-01  1.087618637761E-01 -3.507450971690E-01
H87  4.744733755551E-01  3.912381362239E-01  1.492549028310E-01
H88 -4.744733755551E-01 -1.087618637761E-01  3.507450971690E-01


#===END

data_OPT_STEP_45

_symmetry_space_group_name_H-M 'P 1'
_cell_length_a     18.07519112
_cell_length_b      8.16145901
_cell_length_c      6.51612674
_cell_angle_alpha   90.000000
_cell_angle_beta   91.031497
_cell_angle_gamma   90.000000

loop_
_atom_site_label
_atom_site_fract_x
_atom_site_fract_y
_atom_site_fract_z
C1  1.623530485211E-01 -3.884443976508E-01  4.746110130938E-01
C2 -1.623530485211E-01  1.115556023492E-01  2.538898690618E-02
C3 -1.623530485211E-01  3.884443976508E-01 -4.746110130938E-01
C4  1.623530485211E-01 -1.115556023492E-01 -2.538898690618E-02
H5  1.777142020864E-01 -2.961516863121E-01 -4.130705123632E-01
H6 -1.777142020864E-01  2.038483136879E-01 -8.692948763683E-02
H7 -1.777142020864E-01  2.961516863121E-01  4.130705123632E-01
H8  1.777142020864E-01 -2.038483136879E-01  8.692948763683E-02
C9  8.967876256076E-02 -3.940955188096E-01  4.020121316390E-01
C10 -8.967876256076E-02  1.059044811904E-01  9.798786836099E-02
C11 -8.967876256076E-02  3.940955188096E-01 -4.020121316390E-01
C12  8.967876256076E-02 -1.059044811904E-01 -9.798786836099E-02
H13  4.963763997425E-02 -3.085239723428E-01  4.617573841721E-01
H14 -4.963763997425E-02  1.914760276572E-01  3.824261582785E-02
H15 -4.963763997425E-02  3.085239723428E-01 -4.617573841721E-01
H16  4.963763997425E-02 -1.914760276572E-01 -3.824261582785E-02
C17  6.836679906504E-02  4.910155104761E-01  2.546695115670E-01
C18 -6.836679906504E-02 -8.984489523893E-03  2.453304884330E-01
C19 -6.836679906504E-02 -4.910155104761E-01 -2.546695115670E-01
C20  6.836679906504E-02  8.984489523893E-03 -2.453304884330E-01
H21  1.143602018090E-02  4.861227272188E-01  1.998569040854E-01
H22 -1.143602018090E-02 -1.387727278118E-02  3.001430959146E-01
H23 -1.143602018090E-02 -4.861227272188E-01 -1.998569040854E-01
H24  1.143602018090E-02  1.387727278118E-02 -3.001430959146E-01
C25  1.206361996932E-01  3.816533479778E-01  1.806463419967E-01
C26 -1.206361996932E-01 -1.183466520222E-01  3.193536580033E-01
C27 -1.206361996932E-01 -3.816533479778E-01 -1.806463419967E-01
C28  1.206361996932E-01  1.183466520222E-01 -3.193536580033E-01
H29  1.051047416214E-01  2.906279880313E-01  6.677302312577E-02
H30 -1.051047416214E-01 -2.093720119687E-01  4.332269768742E-01
H31 -1.051047416214E-01 -2.906279880313E-01 -6.677302312577E-02
H32  1.051047416214E-01  2.093720119687E-01 -4.332269768742E-01
C33  1.932275978784E-01  3.867404933530E-01  2.542149157327E-01
C34 -1.932275978784E-01 -1.132595066470E-01  2.457850842673E-01
C35 -1.932275978784E-01 -3.867404933530E-01 -2.542149157327E-01
C36  1.932275978784E-01  1.132595066470E-01 -2.457850842673E-01
H37  2.325664521614E-01  2.976466019304E-01  1.989737566423E-01
H38 -2.325664521614E-01 -2.023533980696E-01  3.010262433577E-01
H39 -2.325664521614E-01 -2.976466019304E-01 -1.989737566423E-01
H40  2.325664521614E-01  2.023533980696E-01 -3.010262433577E-01
C41  2.156411310357E-01 -4.980139493188E-01  4.021827135516E-01
C42 -2.156411310357E-01  1.986050681243E-03  9.781728644840E-02
C43 -2.156411310357E-01  4.980139493188E-01 -4.021827135516E-01
C44  2.156411310357E-01 -1.986050681243E-03 -9.781728644840E-02
C45  2.932250113655E-01 -4.902754576548E-01  4.790190079540E-01
C46 -2.932250113655E-01  9.724542345219E-03  2.098099204597E-02
C47 -2.932250113655E-01  4.902754576548E-01 -4.790190079540E-01
C48  2.932250113655E-01 -9.724542345220E-03 -2.098099204597E-02
C49  3.091810753311E-01 -4.328067312789E-01 -3.172485144693E-01
C50 -3.091810753311E-01  6.719326872107E-02 -1.827514855307E-01
C51 -3.091810753311E-01  4.328067312789E-01  3.172485144693E-01
C52  3.091810753311E-01 -6.719326872107E-02  1.827514855307E-01
H53  2.637956436367E-01 -4.030845797021E-01 -2.175821023141E-01
H54 -2.637956436367E-01  9.691542029789E-02 -2.824178976859E-01
H55 -2.637956436367E-01  4.030845797021E-01  2.175821023141E-01
H56  2.637956436367E-01 -9.691542029789E-02  2.824178976859E-01
C57  3.799980468332E-01 -4.163902190053E-01 -2.455151429343E-01
C58 -3.799980468332E-01  8.360978099469E-02 -2.544848570657E-01
C59 -3.799980468332E-01  4.163902190053E-01  2.455151429343E-01
C60  3.799980468332E-01 -8.360978099469E-02  2.544848570657E-01
H61  3.905915241124E-01 -3.712558910371E-01 -9.132686850259E-02
H62 -3.905915241124E-01  1.287441089629E-01 -4.086731314974E-01
H63 -3.905915241124E-01  3.712558910371E-01  9.132686850259E-02
H64  3.905915241124E-01 -1.287441089629E-01  4.086731314974E-01
C65  4.413326113509E-01 -4.573782206024E-01 -3.701383105995E-01
C66 -4.413326113509E-01  4.262177939765E-02 -1.298616894005E-01
C67 -4.413326113509E-01  4.573782206024E-01  3.701383105995E-01
C68  4.413326113509E-01 -4.262177939765E-02  1.298616894005E-01
C69  4.262443100971E-01  4.804893635256E-01  4.267927259712E-01
C70 -4.262443100971E-01 -1.951063647436E-02  7.320727402876E-02
C71 -4.262443100971E-01 -4.804893635256E-01 -4.267927259712E-01
C72  4.262443100971E-01  1.951063647436E-02 -7.320727402876E-02
C73  3.513953396857E-01  4.664624773429E-01  3.575873159758E-01
C74 -3.513953396857E-01 -3.353752265709E-02  1.424126840242E-01
C75 -3.513953396857E-01 -4.664624773429E-01 -3.575873159758E-01
C76  3.513953396857E-01  3.353752265709E-02 -1.424126840242E-01
H77  3.413049941363E-01  4.250219615176E-01  2.015049848339E-01
H78 -3.413049941363E-01 -7.497803848238E-02  2.984950151661E-01
H79 -3.413049941363E-01 -4.250219615176E-01 -2.015049848339E-01
H80  3.413049941363E-01  7.497803848238E-02 -2.984950151661E-01
C81 -4.855312921728E-01 -4.389799696248E-01 -3.021767428684E-01
C82  4.855312921728E-01  6.102003037521E-02 -1.978232571316E-01
C83  4.855312921728E-01  4.389799696248E-01  3.021767428684E-01
C84 -4.855312921728E-01 -6.102003037521E-02  1.978232571316E-01
H85 -4.744775303915E-01 -3.912398153603E-01 -1.492385867401E-01
H86  4.744775303915E-01  1.087601846397E-01 -3.507614132599E-01
H87  4.744775303915E-01  3.912398153603E-01  1.492385867401E-01
H88 -4.744775303915E-01 -1.087601846397E-01  3.507614132599E-01


#===END

data_OPT_STEP_46

_symmetry_space_group_name_H-M 'P 1'
_cell_length_a     18.07578508
_cell_length_b      8.16193698
_cell_length_c      6.51573474
_cell_angle_alpha   90.000000
_cell_angle_beta   91.030780
_cell_angle_gamma   90.000000

loop_
_atom_site_label
_atom_site_fract_x
_atom_site_fract_y
_atom_site_fract_z
C1  1.623629969530E-01 -3.884484899166E-01  4.746036530739E-01
C2 -1.623629969530E-01  1.115515100834E-01  2.539634692611E-02
C3 -1.623629969530E-01  3.884484899166E-01 -4.746036530739E-01
C4  1.623629969530E-01 -1.115515100834E-01 -2.539634692611E-02
H5  1.777220932723E-01 -2.961568538654E-01 -4.130785477822E-01
H6 -1.777220932723E-01  2.038431461346E-01 -8.692145221783E-02
H7 -1.777220932723E-01  2.961568538654E-01  4.130785477822E-01
H8  1.777220932723E-01 -2.038431461346E-01  8.692145221783E-02
C9  8.969006917617E-02 -3.941150307798E-01  4.020118301231E-01
C10 -8.969006917617E-02  1.058849692202E-01  9.798816987692E-02
C11 -8.969006917617E-02  3.941150307798E-01 -4.020118301231E-01
C12  8.969006917617E-02 -1.058849692202E-01 -9.798816987692E-02
H13  4.964901259007E-02 -3.085513172028E-01  4.617613972625E-01
H14 -4.964901259007E-02  1.914486827972E-01  3.823860273748E-02
H15 -4.964901259007E-02  3.085513172028E-01 -4.617613972625E-01
H16  4.964901259007E-02 -1.914486827972E-01 -3.823860273748E-02
C17  6.838054961150E-02  4.909882191181E-01  2.546776912905E-01
C18 -6.838054961150E-02 -9.011780881861E-03  2.453223087095E-01
C19 -6.838054961150E-02 -4.909882191181E-01 -2.546776912905E-01
C20  6.838054961150E-02  9.011780881861E-03 -2.453223087095E-01
H21  1.145141932093E-02  4.860756304317E-01  1.998694714404E-01
H22 -1.145141932093E-02 -1.392436956833E-02  3.001305285596E-01
H23 -1.145141932093E-02 -4.860756304317E-01 -1.998694714404E-01
H24  1.145141932093E-02  1.392436956833E-02 -3.001305285596E-01
C25  1.206509587872E-01  3.816374436239E-01  1.806521222514E-01
C26 -1.206509587872E-01 -1.183625563761E-01  3.193478777486E-01
C27 -1.206509587872E-01 -3.816374436239E-01 -1.806521222514E-01
C28  1.206509587872E-01  1.183625563761E-01 -3.193478777486E-01
H29  1.051201698261E-01  2.906055237786E-01  6.678872898590E-02
H30 -1.051201698261E-01 -2.093944762214E-01  4.332112710141E-01
H31 -1.051201698261E-01 -2.906055237786E-01 -6.678872898590E-02
H32  1.051201698261E-01  2.093944762214E-01 -4.332112710141E-01
C33  1.932404691692E-01  3.867384654506E-01  2.542143898544E-01
C34 -1.932404691692E-01 -1.132615345494E-01  2.457856101456E-01
C35 -1.932404691692E-01 -3.867384654506E-01 -2.542143898544E-01
C36  1.932404691692E-01  1.132615345494E-01 -2.457856101456E-01
H37  2.325801227620E-01  2.976513906493E-01  1.989746144717E-01
H38 -2.325801227620E-01 -2.023486093507E-01  3.010253855283E-01
H39 -2.325801227620E-01 -2.976513906493E-01 -1.989746144717E-01
H40  2.325801227620E-01  2.023486093507E-01 -3.010253855283E-01
C41  2.156512436439E-01 -4.980109926537E-01  4.021772908811E-01
C42 -2.156512436439E-01  1.989007346296E-03  9.782270911892E-02
C43 -2.156512436439E-01  4.980109926537E-01 -4.021772908811E-01
C44  2.156512436439E-01 -1.989007346296E-03 -9.782270911892E-02
C45  2.932320504680E-01 -4.902665448144E-01  4.790154669127E-01
C46 -2.932320504680E-01  9.733455185572E-03  2.098453308728E-02
C47 -2.932320504680E-01  4.902665448144E-01 -4.790154669127E-01
C48  2.932320504680E-01 -9.733455185573E-03 -2.098453308728E-02
C49  3.091866559559E-01 -4.327948799633E-01 -3.172427341698E-01
C50 -3.091866559559E-01  6.720512003673E-02 -1.827572658302E-01
C51 -3.091866559559E-01  4.327948799633E-01  3.172427341698E-01
C52  3.091866559559E-01 -6.720512003673E-02  1.827572658302E-01
H53  2.638028829636E-01 -4.030671639711E-01 -2.175725257072E-01
H54 -2.638028829636E-01  9.693283602887E-02 -2.824274742928E-01
H55 -2.638028829636E-01  4.030671639711E-01  2.175725257072E-01
H56  2.638028829636E-01 -9.693283602887E-02  2.824274742928E-01
C57  3.800011937802E-01 -4.163844340320E-01 -2.455031196962E-01
C58 -3.800011937802E-01  8.361556596800E-02 -2.544968803038E-01
C59 -3.800011937802E-01  4.163844340320E-01  2.455031196962E-01
C60  3.800011937802E-01 -8.361556596800E-02  2.544968803038E-01
H61  3.905937133997E-01 -3.712511017368E-01 -9.130537888614E-02
H62 -3.905937133997E-01  1.287488982632E-01 -4.086946211139E-01
H63 -3.905937133997E-01  3.712511017368E-01  9.130537888614E-02
H64  3.905937133997E-01 -1.287488982632E-01  4.086946211139E-01
C65  4.413341578515E-01 -4.573780724097E-01 -3.701307152099E-01
C66 -4.413341578515E-01  4.262192759031E-02 -1.298692847901E-01
C67 -4.413341578515E-01  4.573780724097E-01  3.701307152099E-01
C68  4.413341578515E-01 -4.262192759031E-02  1.298692847901E-01
C69  4.262469640811E-01  4.804919572274E-01  4.267884516871E-01
C70 -4.262469640811E-01 -1.950804277258E-02  7.321154831295E-02
C71 -4.262469640811E-01 -4.804919572274E-01 -4.267884516871E-01
C72  4.262469640811E-01  1.950804277258E-02 -7.321154831295E-02
C73  3.514006975898E-01  4.664668328371E-01  3.575792963232E-01
C74 -3.514006975898E-01 -3.353316716286E-02  1.424207036768E-01
C75 -3.514006975898E-01 -4.664668328371E-01 -3.575792963232E-01
C76  3.514006975898E-01  3.353316716286E-02 -1.424207036768E-01
H77  3.413101924912E-01  4.250240576540E-01  2.014896425357E-01
H78 -3.413101924912E-01 -7.497594234599E-02  2.985103574643E-01
H79 -3.413101924912E-01 -4.250240576540E-01 -2.014896425357E-01
H80  3.413101924912E-01  7.497594234599E-02 -2.985103574643E-01
C81 -4.855323051854E-01 -4.389801814356E-01 -3.021664709366E-01
C82  4.855323051854E-01  6.101981856438E-02 -1.978335290634E-01
C83  4.855323051854E-01  4.389801814356E-01  3.021664709366E-01
C84 -4.855323051854E-01 -6.101981856438E-02  1.978335290634E-01
H85 -4.744786388109E-01 -3.912437978386E-01 -1.492188944447E-01
H86  4.744786388109E-01  1.087562021614E-01 -3.507811055553E-01
H87  4.744786388109E-01  3.912437978386E-01  1.492188944447E-01
H88 -4.744786388109E-01 -1.087562021614E-01  3.507811055553E-01


#===END

data_OPT_STEP_47

_symmetry_space_group_name_H-M 'P 1'
_cell_length_a     18.07570228
_cell_length_b      8.16138087
_cell_length_c      6.51593415
_cell_angle_alpha   90.000000
_cell_angle_beta   91.029656
_cell_angle_gamma   90.000000

loop_
_atom_site_label
_atom_site_fract_x
_atom_site_fract_y
_atom_site_fract_z
C1  1.623664127447E-01 -3.884416956440E-01  4.745969659022E-01
C2 -1.623664127447E-01  1.115583043560E-01  2.540303409785E-02
C3 -1.623664127447E-01  3.884416956440E-01 -4.745969659022E-01
C4  1.623664127447E-01 -1.115583043560E-01 -2.540303409785E-02
H5  1.777226225489E-01 -2.961233969316E-01 -4.131058482951E-01
H6 -1.777226225489E-01  2.038766030684E-01 -8.689415170494E-02
H7 -1.777226225489E-01  2.961233969316E-01  4.131058482951E-01
H8  1.777226225489E-01 -2.038766030684E-01  8.689415170494E-02
C9  8.969608858891E-02 -3.940920333020E-01  4.019861266882E-01
C10 -8.969608858891E-02  1.059079666980E-01  9.801387331179E-02
C11 -8.969608858891E-02  3.940920333020E-01 -4.019861266882E-01
C12  8.969608858891E-02 -1.059079666980E-01 -9.801387331179E-02
H13  4.965488883371E-02 -3.085200210636E-01  4.617344364703E-01
H14 -4.965488883371E-02  1.914799789364E-01  3.826556352974E-02
H15 -4.965488883371E-02  3.085200210636E-01 -4.617344364703E-01
H16  4.965488883371E-02 -1.914799789364E-01 -3.826556352974E-02
C17  6.839133383032E-02  4.910116836177E-01  2.546509317777E-01
C18 -6.839133383032E-02 -8.988316382335E-03  2.453490682223E-01
C19 -6.839133383032E-02 -4.910116836177E-01 -2.546509317777E-01
C20  6.839133383032E-02  8.988316382335E-03 -2.453490682223E-01
H21  1.146043591968E-02  4.860780300535E-01  1.998529007001E-01
H22 -1.146043591968E-02 -1.392196994649E-02  3.001470992999E-01
H23 -1.146043591968E-02 -4.860780300535E-01 -1.998529007001E-01
H24  1.146043591968E-02  1.392196994649E-02 -3.001470992999E-01
C25  1.206630507483E-01  3.816507911319E-01  1.806482454665E-01
C26 -1.206630507483E-01 -1.183492088681E-01  3.193517545335E-01
C27 -1.206630507483E-01 -3.816507911319E-01 -1.806482454665E-01
C28  1.206630507483E-01  1.183492088681E-01 -3.193517545335E-01
H29  1.051278949517E-01  2.905582534334E-01  6.684721586163E-02
H30 -1.051278949517E-01 -2.094417465666E-01  4.331527841384E-01
H31 -1.051278949517E-01 -2.905582534334E-01 -6.684721586163E-02
H32  1.051278949517E-01  2.094417465666E-01 -4.331527841384E-01
C33  1.932506042573E-01  3.867380128700E-01  2.542198895077E-01
C34 -1.932506042573E-01 -1.132619871300E-01  2.457801104923E-01
C35 -1.932506042573E-01 -3.867380128700E-01 -2.542198895077E-01
C36  1.932506042573E-01  1.132619871300E-01 -2.457801104923E-01
H37  2.325858947856E-01  2.976048371420E-01  1.990287229693E-01
H38 -2.325858947856E-01 -2.023951628580E-01  3.009712770307E-01
H39 -2.325858947856E-01 -2.976048371420E-01 -1.990287229693E-01
H40  2.325858947856E-01  2.023951628580E-01 -3.009712770307E-01
C41  2.156564452858E-01 -4.980069979307E-01  4.021828434961E-01
C42 -2.156564452858E-01  1.993002069319E-03  9.781715650388E-02
C43 -2.156564452858E-01  4.980069979307E-01 -4.021828434961E-01
C44  2.156564452858E-01 -1.993002069320E-03 -9.781715650388E-02
C45  2.932335178815E-01 -4.902419488036E-01  4.790109423673E-01
C46 -2.932335178815E-01  9.758051196379E-03  2.098905763267E-02
C47 -2.932335178815E-01  4.902419488036E-01 -4.790109423673E-01
C48  2.932335178815E-01 -9.758051196379E-03 -2.098905763267E-02
C49  3.091841989634E-01 -4.327749705282E-01 -3.172515688697E-01
C50 -3.091841989634E-01  6.722502947184E-02 -1.827484311303E-01
C51 -3.091841989634E-01  4.327749705282E-01  3.172515688697E-01
C52  3.091841989634E-01 -6.722502947184E-02  1.827484311303E-01
H53  2.637992407403E-01 -4.030401995374E-01 -2.175886757838E-01
H54 -2.637992407403E-01  9.695980046257E-02 -2.824113242162E-01
H55 -2.637992407403E-01  4.030401995374E-01  2.175886757838E-01
H56  2.637992407403E-01 -9.695980046257E-02  2.824113242162E-01
C57  3.799990384104E-01 -4.163775717131E-01 -2.455084117191E-01
C58 -3.799990384104E-01  8.362242828691E-02 -2.544915882809E-01
C59 -3.799990384104E-01  4.163775717131E-01  2.455084117191E-01
C60  3.799990384104E-01 -8.362242828691E-02  2.544915882809E-01
H61  3.905892038387E-01 -3.712096487971E-01 -9.132099345349E-02
H62 -3.905892038387E-01  1.287903512029E-01 -4.086790065465E-01
H63 -3.905892038387E-01  3.712096487971E-01  9.132099345349E-02
H64  3.905892038387E-01 -1.287903512029E-01  4.086790065465E-01
C65  4.413332057823E-01 -4.573944563636E-01 -3.701250723662E-01
C66 -4.413332057823E-01  4.260554363637E-02 -1.298749276338E-01
C67 -4.413332057823E-01  4.573944563636E-01  3.701250723662E-01
C68  4.413332057823E-01 -4.260554363637E-02  1.298749276338E-01
C69  4.262480233952E-01  4.805105379450E-01  4.267863754046E-01
C70 -4.262480233952E-01 -1.948946205497E-02  7.321362459537E-02
C71 -4.262480233952E-01 -4.805105379450E-01 -4.267863754046E-01
C72  4.262480233952E-01  1.948946205497E-02 -7.321362459537E-02
C73  3.514021471572E-01  4.664871577659E-01  3.575814316512E-01
C74 -3.514021471572E-01 -3.351284223409E-02  1.424185683488E-01
C75 -3.514021471572E-01 -4.664871577659E-01 -3.575814316512E-01
C76  3.514021471572E-01  3.351284223409E-02 -1.424185683488E-01
H77  3.413103260628E-01  4.250560749372E-01  2.014861962614E-01
H78 -3.413103260628E-01 -7.494392506276E-02  2.985138037386E-01
H79 -3.413103260628E-01 -4.250560749372E-01 -2.014861962614E-01
H80  3.413103260628E-01  7.494392506276E-02 -2.985138037386E-01
C81 -4.855337759827E-01 -4.389971196889E-01 -3.021713599033E-01
C82  4.855337759827E-01  6.100288031109E-02 -1.978286400967E-01
C83  4.855337759827E-01  4.389971196889E-01  3.021713599033E-01
C84 -4.855337759827E-01 -6.100288031109E-02  1.978286400967E-01
H85 -4.744809660859E-01 -3.912612066446E-01 -1.492221908275E-01
H86  4.744809660859E-01  1.087387933554E-01 -3.507778091725E-01
H87  4.744809660859E-01  3.912612066446E-01  1.492221908275E-01
H88 -4.744809660859E-01 -1.087387933554E-01  3.507778091725E-01


#===END

data_OPT_STEP_48

_symmetry_space_group_name_H-M 'P 1'
_cell_length_a     18.07570752
_cell_length_b      8.16078820
_cell_length_c      6.51615305
_cell_angle_alpha   90.000000
_cell_angle_beta   91.028195
_cell_angle_gamma   90.000000

loop_
_atom_site_label
_atom_site_fract_x
_atom_site_fract_y
_atom_site_fract_z
C1  1.623678740694E-01 -3.884332981139E-01  4.745921389218E-01
C2 -1.623678740694E-01  1.115667018861E-01  2.540786107819E-02
C3 -1.623678740694E-01  3.884332981139E-01 -4.745921389218E-01
C4  1.623678740694E-01 -1.115667018861E-01 -2.540786107819E-02
H5  1.777193789964E-01 -2.960903097688E-01 -4.131277403715E-01
H6 -1.777193789964E-01  2.039096902312E-01 -8.687225962854E-02
H7 -1.777193789964E-01  2.960903097688E-01  4.131277403715E-01
H8  1.777193789964E-01 -2.039096902312E-01  8.687225962854E-02
C9  8.970133844913E-02 -3.940686649510E-01  4.019567347457E-01
C10 -8.970133844913E-02  1.059313350490E-01  9.804326525427E-02
C11 -8.970133844913E-02  3.940686649510E-01 -4.019567347457E-01
C12  8.970133844913E-02 -1.059313350490E-01 -9.804326525427E-02
H13  4.966126266291E-02 -3.084845048895E-01  4.616988076229E-01
H14 -4.966126266291E-02  1.915154951105E-01  3.830119237708E-02
H15 -4.966126266291E-02  3.084845048895E-01 -4.616988076229E-01
H16  4.966126266291E-02 -1.915154951105E-01 -3.830119237708E-02
C17  6.840123681524E-02  4.910277126686E-01  2.546254811661E-01
C18 -6.840123681524E-02 -8.972287331449E-03  2.453745188339E-01
C19 -6.840123681524E-02 -4.910277126686E-01 -2.546254811661E-01
C20  6.840123681524E-02  8.972287331449E-03 -2.453745188339E-01
H21  1.146945747202E-02  4.860742164310E-01  1.998340228544E-01
H22 -1.146945747202E-02 -1.392578356902E-02  3.001659771456E-01
H23 -1.146945747202E-02 -4.860742164310E-01 -1.998340228544E-01
H24  1.146945747202E-02  1.392578356902E-02 -3.001659771456E-01
C25  1.206741653853E-01  3.816574439999E-01  1.806444200487E-01
C26 -1.206741653853E-01 -1.183425560001E-01  3.193555799513E-01
C27 -1.206741653853E-01 -3.816574439999E-01 -1.806444200487E-01
C28  1.206741653853E-01  1.183425560001E-01 -3.193555799513E-01
H29  1.051360131823E-01  2.905135588069E-01  6.690010115898E-02
H30 -1.051360131823E-01 -2.094864411931E-01  4.330998988410E-01
H31 -1.051360131823E-01 -2.905135588069E-01 -6.690010115898E-02
H32  1.051360131823E-01  2.094864411931E-01 -4.330998988410E-01
C33  1.932592529649E-01  3.867371125924E-01  2.542236069306E-01
C34 -1.932592529649E-01 -1.132628874077E-01  2.457763930694E-01
C35 -1.932592529649E-01 -3.867371125923E-01 -2.542236069306E-01
C36  1.932592529649E-01  1.132628874077E-01 -2.457763930694E-01
H37  2.325914094214E-01  2.975656204822E-01  1.990748356529E-01
H38 -2.325914094214E-01 -2.024343795178E-01  3.009251643471E-01
H39 -2.325914094214E-01 -2.975656204822E-01 -1.990748356529E-01
H40  2.325914094214E-01  2.024343795178E-01 -3.009251643471E-01
C41  2.156605143843E-01 -4.979971593349E-01  4.021827680502E-01
C42 -2.156605143843E-01  2.002840665070E-03  9.781723194982E-02
C43 -2.156605143843E-01  4.979971593349E-01 -4.021827680502E-01
C44  2.156605143843E-01 -2.002840665070E-03 -9.781723194982E-02
C45  2.932338217869E-01 -4.902243897476E-01  4.790066440960E-01
C46 -2.932338217869E-01  9.775610252383E-03  2.099335590395E-02
C47 -2.932338217869E-01  4.902243897476E-01 -4.790066440960E-01
C48  2.932338217869E-01 -9.775610252383E-03 -2.099335590395E-02
C49  3.091823170811E-01 -4.327644941104E-01 -3.172625781859E-01
C50 -3.091823170811E-01  6.723550588960E-02 -1.827374218141E-01
C51 -3.091823170811E-01  4.327644941104E-01  3.172625781859E-01
C52  3.091823170811E-01 -6.723550588960E-02  1.827374218141E-01
H53  2.637980135692E-01 -4.030121615593E-01 -2.176054717078E-01
H54 -2.637980135692E-01  9.698783844075E-02 -2.823945282922E-01
H55 -2.637980135692E-01  4.030121615593E-01  2.176054717078E-01
H56  2.637980135692E-01 -9.698783844075E-02  2.823945282922E-01
C57  3.799972999624E-01 -4.163743369622E-01 -2.455222690282E-01
C58 -3.799972999624E-01  8.362566303776E-02 -2.544777309718E-01
C59 -3.799972999624E-01  4.163743369622E-01  2.455222690282E-01
C60  3.799972999624E-01 -8.362566303776E-02  2.544777309718E-01
H61  3.905856592670E-01 -3.711648348297E-01 -9.134995358281E-02
H62 -3.905856592670E-01  1.288351651703E-01 -4.086500464172E-01
H63 -3.905856592670E-01  3.711648348297E-01  9.134995358281E-02
H64  3.905856592670E-01 -1.288351651703E-01  4.086500464172E-01
C65  4.413320152000E-01 -4.574083395822E-01 -3.701284550062E-01
C66 -4.413320152000E-01  4.259166041778E-02 -1.298715449938E-01
C67 -4.413320152000E-01  4.574083395822E-01  3.701284550062E-01
C68  4.413320152000E-01 -4.259166041778E-02  1.298715449938E-01
C69  4.262488695267E-01  4.805196648570E-01  4.267792613656E-01
C70 -4.262488695267E-01 -1.948033514298E-02  7.322073863437E-02
C71 -4.262488695267E-01 -4.805196648570E-01 -4.267792613656E-01
C72  4.262488695267E-01  1.948033514298E-02 -7.322073863437E-02
C73  3.514024152274E-01  4.665057944274E-01  3.575783261787E-01
C74 -3.514024152274E-01 -3.349420557257E-02  1.424216738213E-01
C75 -3.514024152274E-01 -4.665057944274E-01 -3.575783261787E-01
C76  3.514024152274E-01  3.349420557257E-02 -1.424216738213E-01
H77  3.413087317313E-01  4.250865821910E-01  2.014780531702E-01
H78 -3.413087317313E-01 -7.491341780899E-02  2.985219468298E-01
H79 -3.413087317313E-01 -4.250865821910E-01 -2.014780531702E-01
H80  3.413087317313E-01  7.491341780899E-02 -2.985219468298E-01
C81 -4.855371805391E-01 -4.390031934365E-01 -3.021757039898E-01
C82  4.855371805391E-01  6.099680656349E-02 -1.978242960102E-01
C83  4.855371805391E-01  4.390031934365E-01  3.021757039898E-01
C84 -4.855371805391E-01 -6.099680656349E-02  1.978242960102E-01
H85 -4.744865301532E-01 -3.912684491595E-01 -1.492242593710E-01
H86  4.744865301532E-01  1.087315508405E-01 -3.507757406290E-01
H87  4.744865301532E-01  3.912684491595E-01  1.492242593710E-01
H88 -4.744865301532E-01 -1.087315508405E-01  3.507757406290E-01


#===END

data_OPT_STEP_49

_symmetry_space_group_name_H-M 'P 1'
_cell_length_a     18.07572712
_cell_length_b      8.16015807
_cell_length_c      6.51640552
_cell_angle_alpha   90.000000
_cell_angle_beta   91.026700
_cell_angle_gamma   90.000000

loop_
_atom_site_label
_atom_site_fract_x
_atom_site_fract_y
_atom_site_fract_z
C1  1.623703405525E-01 -3.884147350853E-01  4.745776691277E-01
C2 -1.623703405525E-01  1.115852649147E-01  2.542233087233E-02
C3 -1.623703405525E-01  3.884147350853E-01 -4.745776691277E-01
C4  1.623703405525E-01 -1.115852649147E-01 -2.542233087233E-02
H5  1.777176671339E-01 -2.960542634775E-01 -4.131539057518E-01
H6 -1.777176671339E-01  2.039457365225E-01 -8.684609424825E-02
H7 -1.777176671339E-01  2.960542634775E-01  4.131539057518E-01
H8  1.777176671339E-01 -2.039457365225E-01  8.684609424825E-02
C9  8.970608979758E-02 -3.940448443588E-01  4.019292919360E-01
C10 -8.970608979758E-02  1.059551556412E-01  9.807070806398E-02
C11 -8.970608979758E-02  3.940448443588E-01 -4.019292919360E-01
C12  8.970608979758E-02 -1.059551556412E-01 -9.807070806398E-02
H13  4.966698112355E-02 -3.084496819981E-01  4.616632859998E-01
H14 -4.966698112355E-02  1.915503180019E-01  3.833671400022E-02
H15 -4.966698112355E-02  3.084496819981E-01 -4.616632859998E-01
H16  4.966698112355E-02 -1.915503180019E-01 -3.833671400022E-02
C17  6.840992961606E-02  4.910402460970E-01  2.546060259069E-01
C18 -6.840992961606E-02 -8.959753902991E-03  2.453939740931E-01
C19 -6.840992961606E-02 -4.910402460970E-01 -2.546060259069E-01
C20  6.840992961606E-02  8.959753902990E-03 -2.453939740931E-01
H21  1.147872658265E-02  4.860729214812E-01  1.998166238469E-01
H22 -1.147872658265E-02 -1.392707851880E-02  3.001833761531E-01
H23 -1.147872658265E-02 -4.860729214812E-01 -1.998166238469E-01
H24  1.147872658265E-02  1.392707851880E-02 -3.001833761531E-01
C25  1.206837099692E-01  3.816527091002E-01  1.806504657962E-01
C26 -1.206837099692E-01 -1.183472908998E-01  3.193495342038E-01
C27 -1.206837099692E-01 -3.816527091002E-01 -1.806504657962E-01
C28  1.206837099692E-01  1.183472908998E-01 -3.193495342038E-01
H29  1.051444992955E-01  2.904741811127E-01  6.694687188900E-02
H30 -1.051444992955E-01 -2.095258188873E-01  4.330531281110E-01
H31 -1.051444992955E-01 -2.904741811127E-01 -6.694687188900E-02
H32  1.051444992955E-01  2.095258188873E-01 -4.330531281110E-01
C33  1.932668648248E-01  3.867285343461E-01  2.542357108277E-01
C34 -1.932668648248E-01 -1.132714656539E-01  2.457642891723E-01
C35 -1.932668648248E-01 -3.867285343461E-01 -2.542357108277E-01
C36  1.932668648248E-01  1.132714656539E-01 -2.457642891723E-01
H37  2.325974661378E-01  2.975289418977E-01  1.991200483313E-01
H38 -2.325974661378E-01 -2.024710581023E-01  3.008799516687E-01
H39 -2.325974661378E-01 -2.975289418977E-01 -1.991200483313E-01
H40  2.325974661378E-01  2.024710581023E-01 -3.008799516687E-01
C41  2.156645176487E-01 -4.979902335123E-01  4.021844915573E-01
C42 -2.156645176487E-01  2.009766487718E-03  9.781550844269E-02
C43 -2.156645176487E-01  4.979902335123E-01 -4.021844915573E-01
C44  2.156645176487E-01 -2.009766487718E-03 -9.781550844269E-02
C45  2.932353892758E-01 -4.902082066679E-01  4.790047336095E-01
C46 -2.932353892758E-01  9.791793332106E-03  2.099526639053E-02
C47 -2.932353892758E-01  4.902082066679E-01 -4.790047336095E-01
C48  2.932353892758E-01 -9.791793332106E-03 -2.099526639053E-02
C49  3.091812856613E-01 -4.327460915417E-01 -3.172707715608E-01
C50 -3.091812856613E-01  6.725390845827E-02 -1.827292284392E-01
C51 -3.091812856613E-01  4.327460915417E-01  3.172707715608E-01
C52  3.091812856613E-01 -6.725390845827E-02  1.827292284392E-01
H53  2.637967912999E-01 -4.029815061388E-01 -2.176213300037E-01
H54 -2.637967912999E-01  9.701849386121E-02 -2.823786699963E-01
H55 -2.637967912999E-01  4.029815061388E-01  2.176213300037E-01
H56  2.637967912999E-01 -9.701849386121E-02  2.823786699963E-01
C57  3.799960121471E-01 -4.163616598032E-01 -2.455316036019E-01
C58 -3.799960121471E-01  8.363834019683E-02 -2.544683963981E-01
C59 -3.799960121471E-01  4.163616598032E-01  2.455316036019E-01
C60  3.799960121471E-01 -8.363834019683E-02  2.544683963981E-01
H61  3.905831301044E-01 -3.711235382663E-01 -9.137384088295E-02
H62 -3.905831301044E-01  1.288764617337E-01 -4.086261591171E-01
H63 -3.905831301044E-01  3.711235382663E-01  9.137384088295E-02
H64  3.905831301044E-01 -1.288764617337E-01  4.086261591171E-01
C65  4.413310195802E-01 -4.574117116993E-01 -3.701292722330E-01
C66 -4.413310195802E-01  4.258828830070E-02 -1.298707277670E-01
C67 -4.413310195802E-01  4.574117116993E-01  3.701292722330E-01
C68  4.413310195802E-01 -4.258828830070E-02  1.298707277670E-01
C69  4.262498202449E-01  4.805309993060E-01  4.267766939235E-01
C70 -4.262498202449E-01 -1.946900069397E-02  7.322330607653E-02
C71 -4.262498202449E-01 -4.805309993060E-01 -4.267766939235E-01
C72  4.262498202449E-01  1.946900069397E-02 -7.322330607653E-02
C73  3.514044053620E-01  4.665229991662E-01  3.575780768776E-01
C74 -3.514044053620E-01 -3.347700083380E-02  1.424219231224E-01
C75 -3.514044053620E-01 -4.665229991662E-01 -3.575780768776E-01
C76  3.514044053620E-01  3.347700083380E-02 -1.424219231224E-01
H77  3.413099622648E-01  4.251138336455E-01  2.014766020588E-01
H78 -3.413099622648E-01 -7.488616635449E-02  2.985233979412E-01
H79 -3.413099622648E-01 -4.251138336455E-01 -2.014766020588E-01
H80  3.413099622648E-01  7.488616635449E-02 -2.985233979412E-01
C81 -4.855390508456E-01 -4.390130808873E-01 -3.021779170670E-01
C82  4.855390508456E-01  6.098691911272E-02 -1.978220829330E-01
C83  4.855390508456E-01  4.390130808873E-01  3.021779170670E-01
C84 -4.855390508456E-01 -6.098691911272E-02  1.978220829330E-01
H85 -4.744896936972E-01 -3.912807220121E-01 -1.492274043544E-01
H86  4.744896936972E-01  1.087192779879E-01 -3.507725956456E-01
H87  4.744896936972E-01  3.912807220121E-01  1.492274043544E-01
H88 -4.744896936972E-01 -1.087192779879E-01  3.507725956456E-01


#===END

data_OPT_STEP_50

_symmetry_space_group_name_H-M 'P 1'
_cell_length_a     18.07583609
_cell_length_b      8.15881064
_cell_length_c      6.51695898
_cell_angle_alpha   90.000000
_cell_angle_beta   91.023442
_cell_angle_gamma   90.000000

loop_
_atom_site_label
_atom_site_fract_x
_atom_site_fract_y
_atom_site_fract_z
C1  1.623754886122E-01 -3.883683205292E-01  4.745426466600E-01
C2 -1.623754886122E-01  1.116316794708E-01  2.545735333999E-02
C3 -1.623754886122E-01  3.883683205292E-01 -4.745426466600E-01
C4  1.623754886122E-01 -1.116316794708E-01 -2.545735333999E-02
H5  1.777168826422E-01 -2.959772834870E-01 -4.132114012244E-01
H6 -1.777168826422E-01  2.040227165130E-01 -8.678859877555E-02
H7 -1.777168826422E-01  2.959772834870E-01  4.132114012244E-01
H8  1.777168826422E-01 -2.040227165130E-01  8.678859877555E-02
C9  8.971518918724E-02 -3.939984332267E-01  4.018819387323E-01
C10 -8.971518918724E-02  1.060015667733E-01  9.811806126769E-02
C11 -8.971518918724E-02  3.939984332267E-01 -4.018819387323E-01
C12  8.971518918724E-02 -1.060015667733E-01 -9.811806126769E-02
H13  4.967644332615E-02 -3.083809218513E-01  4.615959078243E-01
H14 -4.967644332615E-02  1.916190781487E-01  3.840409217570E-02
H15 -4.967644332615E-02  3.083809218513E-01 -4.615959078243E-01
H16  4.967644332615E-02 -1.916190781487E-01 -3.840409217570E-02
C17  6.842515563840E-02  4.910533046045E-01  2.545859986998E-01
C18 -6.842515563840E-02 -8.946695395509E-03  2.454140013002E-01
C19 -6.842515563840E-02 -4.910533046045E-01 -2.545859986998E-01
C20  6.842515563840E-02  8.946695395509E-03 -2.454140013002E-01
H21  1.149561801720E-02  4.860712037987E-01  1.997988268624E-01
H22 -1.149561801720E-02 -1.392879620127E-02  3.002011731376E-01
H23 -1.149561801720E-02 -4.860712037987E-01 -1.997988268624E-01
H24  1.149561801720E-02  1.392879620127E-02 -3.002011731376E-01
C25  1.207004782645E-01  3.816295020610E-01  1.806776420043E-01
C26 -1.207004782645E-01 -1.183704979390E-01  3.193223579957E-01
C27 -1.207004782645E-01 -3.816295020610E-01 -1.806776420043E-01
C28  1.207004782645E-01  1.183704979390E-01 -3.193223579957E-01
H29  1.051619970341E-01  2.903999592060E-01  6.703079819727E-02
H30 -1.051619970341E-01 -2.096000407940E-01  4.329692018027E-01
H31 -1.051619970341E-01 -2.903999592060E-01 -6.703079819727E-02
H32  1.051619970341E-01  2.096000407940E-01 -4.329692018027E-01
C33  1.932799517309E-01  3.867081853316E-01  2.542689853867E-01
C34 -1.932799517309E-01 -1.132918146684E-01  2.457310146133E-01
C35 -1.932799517309E-01 -3.867081853316E-01 -2.542689853867E-01
C36  1.932799517309E-01  1.132918146684E-01 -2.457310146133E-01
H37  2.326100481550E-01  2.974689515536E-01  1.992035551398E-01
H38 -2.326100481550E-01 -2.025310484464E-01  3.007964448602E-01
H39 -2.326100481550E-01 -2.974689515536E-01 -1.992035551398E-01
H40  2.326100481550E-01  2.025310484464E-01 -3.007964448602E-01
C41  2.156716262955E-01 -4.979713390249E-01  4.021848677045E-01
C42 -2.156716262955E-01  2.028660975099E-03  9.781513229546E-02
C43 -2.156716262955E-01  4.979713390249E-01 -4.021848677045E-01
C44  2.156716262955E-01 -2.028660975099E-03 -9.781513229546E-02
C45  2.932386285631E-01 -4.901782297859E-01  4.789998415123E-01
C46 -2.932386285631E-01  9.821770214104E-03  2.100015848769E-02
C47 -2.932386285631E-01  4.901782297859E-01 -4.789998415123E-01
C48  2.932386285631E-01 -9.821770214105E-03 -2.100015848769E-02
C49  3.091793724079E-01 -4.327092139396E-01 -3.172924573467E-01
C50 -3.091793724079E-01  6.729078606037E-02 -1.827075426533E-01
C51 -3.091793724079E-01  4.327092139396E-01  3.172924573467E-01
C52  3.091793724079E-01 -6.729078606037E-02  1.827075426533E-01
H53  2.637932362068E-01 -4.029247201256E-01 -2.176588965294E-01
H54 -2.637932362068E-01  9.707527987441E-02 -2.823411034706E-01
H55 -2.637932362068E-01  4.029247201256E-01  2.176588965294E-01
H56  2.637932362068E-01 -9.707527987441E-02  2.823411034706E-01
C57  3.799925663395E-01 -4.163353296791E-01 -2.455551541039E-01
C58 -3.799925663395E-01  8.366467032089E-02 -2.544448458961E-01
C59 -3.799925663395E-01  4.163353296791E-01  2.455551541039E-01
C60  3.799925663395E-01 -8.366467032089E-02  2.544448458961E-01
H61  3.905771916626E-01 -3.710659659632E-01 -9.141991632118E-02
H62 -3.905771916626E-01  1.289340340368E-01 -4.085800836788E-01
H63 -3.905771916626E-01  3.710659659632E-01  9.141991632118E-02
H64  3.905771916626E-01 -1.289340340368E-01  4.085800836788E-01
C65  4.413289634858E-01 -4.574086310579E-01 -3.701360647275E-01
C66 -4.413289634858E-01  4.259136894212E-02 -1.298639352725E-01
C67 -4.413289634858E-01  4.574086310579E-01  3.701360647275E-01
C68  4.413289634858E-01 -4.259136894212E-02  1.298639352725E-01
C69  4.262521109692E-01  4.805500102140E-01  4.267745766217E-01
C70 -4.262521109692E-01 -1.944998978598E-02  7.322542337832E-02
C71 -4.262521109692E-01 -4.805500102140E-01 -4.267745766217E-01
C72  4.262521109692E-01  1.944998978598E-02 -7.322542337832E-02
C73  3.514088984905E-01  4.665522389108E-01  3.575790597383E-01
C74 -3.514088984905E-01 -3.344776108915E-02  1.424209402617E-01
C75 -3.514088984905E-01 -4.665522389108E-01 -3.575790597383E-01
C76  3.514088984905E-01  3.344776108915E-02 -1.424209402617E-01
H77  3.413150829274E-01  4.251560516614E-01  2.014819291691E-01
H78 -3.413150829274E-01 -7.484394833860E-02  2.985180708309E-01
H79 -3.413150829273E-01 -4.251560516614E-01 -2.014819291691E-01
H80  3.413150829274E-01  7.484394833860E-02 -2.985180708309E-01
C81 -4.855428157768E-01 -4.390272677954E-01 -3.021851241369E-01
C82  4.855428157768E-01  6.097273220461E-02 -1.978148758631E-01
C83  4.855428157768E-01  4.390272677954E-01  3.021851241369E-01
C84 -4.855428157768E-01 -6.097273220461E-02  1.978148758631E-01
H85 -4.744960432339E-01 -3.913008847427E-01 -1.492395918805E-01
H86  4.744960432339E-01  1.086991152573E-01 -3.507604081195E-01
H87  4.744960432339E-01  3.913008847427E-01  1.492395918805E-01
H88 -4.744960432339E-01 -1.086991152573E-01  3.507604081195E-01


#===END

data_OPT_STEP_51

_symmetry_space_group_name_H-M 'P 1'
_cell_length_a     18.07614678
_cell_length_b      8.15597688
_cell_length_c      6.51819169
_cell_angle_alpha   90.000000
_cell_angle_beta   91.016392
_cell_angle_gamma   90.000000

loop_
_atom_site_label
_atom_site_fract_x
_atom_site_fract_y
_atom_site_fract_z
C1  1.623859644522E-01 -3.882733372492E-01  4.744708868245E-01
C2 -1.623859644522E-01  1.117266627508E-01  2.552911317551E-02
C3 -1.623859644522E-01  3.882733372492E-01 -4.744708868245E-01
C4  1.623859644522E-01 -1.117266627508E-01 -2.552911317551E-02
H5  1.777187903805E-01 -2.958227527069E-01 -4.133330893535E-01
H6 -1.777187903805E-01  2.041772472931E-01 -8.666691064650E-02
H7 -1.777187903805E-01  2.958227527069E-01  4.133330893535E-01
H8  1.777187903805E-01 -2.041772472931E-01  8.666691064650E-02
C9  8.973267029045E-02 -3.939136050121E-01  4.018028817808E-01
C10 -8.973267029045E-02  1.060863949879E-01  9.819711821925E-02
C11 -8.973267029045E-02  3.939136050121E-01 -4.018028817808E-01
C12  8.973267029045E-02 -1.060863949879E-01 -9.819711821925E-02
H13  4.969304688140E-02 -3.082489538929E-01  4.614700021909E-01
H14 -4.969304688140E-02  1.917510461071E-01  3.852999780907E-02
H15 -4.969304688140E-02  3.082489538929E-01 -4.614700021909E-01
H16  4.969304688140E-02 -1.917510461071E-01 -3.852999780907E-02
C17  6.845323788948E-02  4.910639961541E-01  2.545726974961E-01
C18 -6.845323788948E-02 -8.936003845883E-03  2.454273025039E-01
C19 -6.845323788948E-02 -4.910639961541E-01 -2.545726974961E-01
C20  6.845323788948E-02  8.936003845882E-03 -2.454273025039E-01
H21  1.152763111067E-02  4.860642856833E-01  1.997900643751E-01
H22 -1.152763111067E-02 -1.393571431674E-02  3.002099356249E-01
H23 -1.152763111067E-02 -4.860642856833E-01 -1.997900643751E-01
H24  1.152763111067E-02  1.393571431674E-02 -3.002099356249E-01
C25  1.207310864243E-01  3.815715761540E-01  1.807466639883E-01
C26 -1.207310864243E-01 -1.184284238460E-01  3.192533360117E-01
C27 -1.207310864243E-01 -3.815715761540E-01 -1.807466639883E-01
C28  1.207310864243E-01  1.184284238460E-01 -3.192533360117E-01
H29  1.051967712577E-01  2.902596185406E-01  6.718764529399E-02
H30 -1.051967712577E-01 -2.097403814594E-01  4.328123547060E-01
H31 -1.051967712577E-01 -2.902596185406E-01 -6.718764529399E-02
H32  1.051967712577E-01  2.097403814594E-01 -4.328123547060E-01
C33  1.933036135575E-01  3.866635834981E-01  2.543393512902E-01
C34 -1.933036135575E-01 -1.133364165019E-01  2.456606487098E-01
C35 -1.933036135575E-01 -3.866635834981E-01 -2.543393512902E-01
C36  1.933036135575E-01  1.133364165019E-01 -2.456606487098E-01
H37  2.326349417553E-01  2.973614134081E-01  1.993544786651E-01
H38 -2.326349417553E-01 -2.026385865919E-01  3.006455213349E-01
H39 -2.326349417553E-01 -2.973614134081E-01 -1.993544786651E-01
H40  2.326349417553E-01  2.026385865919E-01 -3.006455213349E-01
C41  2.156849235343E-01 -4.979351708584E-01  4.021815024604E-01
C42 -2.156849235343E-01  2.064829141630E-03  9.781849753956E-02
C43 -2.156849235343E-01  4.979351708584E-01 -4.021815024604E-01
C44  2.156849235343E-01 -2.064829141630E-03 -9.781849753956E-02
C45  2.932450849600E-01 -4.901289037042E-01  4.789868228066E-01
C46 -2.932450849600E-01  9.871096295827E-03  2.101317719337E-02
C47 -2.932450849600E-01  4.901289037042E-01 -4.789868228066E-01
C48  2.932450849600E-01 -9.871096295827E-03 -2.101317719337E-02
C49  3.091747361913E-01 -4.326477850403E-01 -3.173411187518E-01
C50 -3.091747361913E-01  6.735221495969E-02 -1.826588812482E-01
C51 -3.091747361913E-01  4.326477850403E-01  3.173411187518E-01
C52  3.091747361913E-01 -6.735221495969E-02  1.826588812482E-01
H53  2.637841856301E-01 -4.028308805763E-01 -2.177394620176E-01
H54 -2.637841856301E-01  9.716911942374E-02 -2.822605379824E-01
H55 -2.637841856301E-01  4.028308805763E-01  2.177394620176E-01
H56  2.637841856301E-01 -9.716911942374E-02  2.822605379824E-01
C57  3.799836722161E-01 -4.162934574907E-01 -2.456062823705E-01
C58 -3.799836722161E-01  8.370654250925E-02 -2.543937176295E-01
C59 -3.799836722161E-01  4.162934574907E-01  2.456062823705E-01
C60  3.799836722161E-01 -8.370654250925E-02  2.543937176295E-01
H61  3.905622103492E-01 -3.709909160360E-01 -9.150785103749E-02
H62 -3.905622103492E-01  1.290090839640E-01 -4.084921489625E-01
H63 -3.905622103492E-01  3.709909160360E-01  9.150785103749E-02
H64  3.905622103492E-01 -1.290090839640E-01  4.084921489625E-01
C65  4.413240390714E-01 -4.573995200638E-01 -3.701555622057E-01
C66 -4.413240390714E-01  4.260047993621E-02 -1.298444377943E-01
C67 -4.413240390714E-01  4.573995200638E-01  3.701555622057E-01
C68  4.413240390714E-01 -4.260047993621E-02  1.298444377943E-01
C69  4.262572764715E-01  4.805768264788E-01  4.267737220919E-01
C70 -4.262572764715E-01 -1.942317352124E-02  7.322627790807E-02
C71 -4.262572764715E-01 -4.805768264788E-01 -4.267737220919E-01
C72  4.262572764715E-01  1.942317352124E-02 -7.322627790807E-02
C73  3.514189871787E-01  4.665954960906E-01  3.575831840968E-01
C74 -3.514189871787E-01 -3.340450390937E-02  1.424168159032E-01
C75 -3.514189871787E-01 -4.665954960906E-01 -3.575831840968E-01
C76  3.514189871787E-01  3.340450390937E-02 -1.424168159032E-01
H77  3.413297094890E-01  4.252149653392E-01  2.015033228869E-01
H78 -3.413297094890E-01 -7.478503466080E-02  2.984966771131E-01
H79 -3.413297094890E-01 -4.252149653392E-01 -2.015033228869E-01
H80  3.413297094890E-01  7.478503466080E-02 -2.984966771131E-01
C81 -4.855518457142E-01 -4.390451734783E-01 -3.022045040463E-01
C82  4.855518457142E-01  6.095482652174E-02 -1.977954959537E-01
C83  4.855518457142E-01  4.390451734783E-01  3.022045040463E-01
C84 -4.855518457142E-01 -6.095482652174E-02  1.977954959537E-01
H85 -4.745112388768E-01 -3.913288411873E-01 -1.492740516554E-01
H86  4.745112388768E-01  1.086711588127E-01 -3.507259483446E-01
H87  4.745112388768E-01  3.913288411873E-01  1.492740516554E-01
H88 -4.745112388768E-01 -1.086711588127E-01  3.507259483446E-01


#===END

data_OPT_STEP_52

_symmetry_space_group_name_H-M 'P 1'
_cell_length_a     18.07685329
_cell_length_b      8.14996987
_cell_length_c      6.52098880
_cell_angle_alpha   90.000000
_cell_angle_beta   91.001069
_cell_angle_gamma   90.000000

loop_
_atom_site_label
_atom_site_fract_x
_atom_site_fract_y
_atom_site_fract_z
C1  1.624068294591E-01 -3.881087985863E-01  4.743424269905E-01
C2 -1.624068294591E-01  1.118912014137E-01  2.565757300947E-02
C3 -1.624068294591E-01  3.881087985863E-01 -4.743424269905E-01
C4  1.624068294591E-01 -1.118912014137E-01 -2.565757300947E-02
H5  1.777261915214E-01 -2.955464385528E-01 -4.135607582922E-01
H6 -1.777261915214E-01  2.044535614472E-01 -8.643924170779E-02
H7 -1.777261915214E-01  2.955464385528E-01  4.135607582922E-01
H8  1.777261915214E-01 -2.044535614472E-01  8.643924170779E-02
C9  8.976602248533E-02 -3.937699035698E-01  4.016813059505E-01
C10 -8.976602248533E-02  1.062300964302E-01  9.831869404951E-02
C11 -8.976602248533E-02  3.937699035698E-01 -4.016813059505E-01
C12  8.976602248533E-02 -1.062300964302E-01 -9.831869404951E-02
H13  4.972309112382E-02 -3.080113813075E-01  4.612555793358E-01
H14 -4.972309112382E-02  1.919886186925E-01  3.874442066422E-02
H15 -4.972309112382E-02  3.080113813075E-01 -4.612555793358E-01
H16  4.972309112382E-02 -1.919886186925E-01 -3.874442066422E-02
C17  6.850500812140E-02  4.910665583160E-01  2.545814527467E-01
C18 -6.850500812140E-02 -8.933441683993E-03  2.454185472533E-01
C19 -6.850500812140E-02 -4.910665583160E-01 -2.545814527467E-01
C20  6.850500812140E-02  8.933441683993E-03 -2.454185472533E-01
H21  1.158825963122E-02  4.860533379708E-01  1.998084977225E-01
H22 -1.158825963122E-02 -1.394666202922E-02  3.001915022775E-01
H23 -1.158825963122E-02 -4.860533379708E-01 -1.998084977225E-01
H24  1.158825963122E-02  1.394666202922E-02 -3.001915022775E-01
C25  1.207864958394E-01  3.814459472779E-01  1.808870924220E-01
C26 -1.207864958394E-01 -1.185540527221E-01  3.191129075780E-01
C27 -1.207864958394E-01 -3.814459472779E-01 -1.808870924220E-01
C28  1.207864958394E-01  1.185540527221E-01 -3.191129075780E-01
H29  1.052622919614E-01  2.900014637088E-01  6.746327694828E-02
H30 -1.052622919614E-01 -2.099985362912E-01  4.325367230517E-01
H31 -1.052622919614E-01 -2.900014637088E-01 -6.746327694828E-02
H32  1.052622919614E-01  2.099985362912E-01 -4.325367230517E-01
C33  1.933468507653E-01  3.865625749400E-01  2.544641767146E-01
C34 -1.933468507653E-01 -1.134374250600E-01  2.455358232854E-01
C35 -1.933468507653E-01 -3.865625749400E-01 -2.544641767146E-01
C36  1.933468507653E-01  1.134374250600E-01 -2.455358232854E-01
H37  2.326823288066E-01  2.971557041041E-01  1.995985249977E-01
H38 -2.326823288066E-01 -2.028442958959E-01  3.004014750023E-01
H39 -2.326823288066E-01 -2.971557041041E-01 -1.995985249977E-01
H40  2.326823288066E-01  2.028442958959E-01 -3.004014750023E-01
C41  2.157102454075E-01 -4.978885540442E-01  4.021677132661E-01
C42 -2.157102454075E-01  2.111445955811E-03  9.783228673394E-02
C43 -2.157102454075E-01  4.978885540442E-01 -4.021677132661E-01
C44  2.157102454075E-01 -2.111445955811E-03 -9.783228673394E-02
C45  2.932577562361E-01 -4.900641973148E-01  4.789488602556E-01
C46 -2.932577562361E-01  9.935802685152E-03  2.105113974437E-02
C47 -2.932577562361E-01  4.900641973148E-01 -4.789488602556E-01
C48  2.932577562361E-01 -9.935802685152E-03 -2.105113974437E-02
C49  3.091621684116E-01 -4.325658586407E-01 -3.174544497535E-01
C50 -3.091621684116E-01  6.743414135932E-02 -1.825455502465E-01
C51 -3.091621684116E-01  4.325658586407E-01  3.174544497535E-01
C52  3.091621684116E-01 -6.743414135932E-02  1.825455502465E-01
H53  2.637607401564E-01 -4.027067624870E-01 -2.179149077899E-01
H54 -2.637607401564E-01  9.729323751302E-02 -2.820850922101E-01
H55 -2.637607401564E-01  4.027067624870E-01  2.179149077899E-01
H56  2.637607401564E-01 -9.729323751302E-02  2.820850922101E-01
C57  3.799604088448E-01 -4.162435287372E-01 -2.457233331788E-01
C58 -3.799604088448E-01  8.375647126279E-02 -2.542766668212E-01
C59 -3.799604088448E-01  4.162435287372E-01  2.457233331788E-01
C60  3.799604088448E-01 -8.375647126279E-02  2.542766668212E-01
H61  3.905227681567E-01 -3.709129920731E-01 -9.168891410759E-02
H62 -3.905227681567E-01  1.290870079269E-01 -4.083110858924E-01
H63 -3.905227681567E-01  3.709129920731E-01  9.168891410759E-02
H64  3.905227681567E-01 -1.290870079269E-01  4.083110858924E-01
C65  4.413115514159E-01 -4.573876226242E-01 -3.702084126868E-01
C66 -4.413115514159E-01  4.261237737582E-02 -1.297915873132E-01
C67 -4.413115514159E-01  4.573876226242E-01  3.702084126868E-01
C68  4.413115514159E-01 -4.261237737582E-02  1.297915873132E-01
C69  4.262692128083E-01  4.806080435457E-01  4.267751183267E-01
C70 -4.262692128083E-01 -1.939195645433E-02  7.322488167329E-02
C71 -4.262692128083E-01 -4.806080435457E-01 -4.267751183267E-01
C72  4.262692128083E-01  1.939195645433E-02 -7.322488167329E-02
C73  3.514421220535E-01  4.666470822364E-01  3.575922988107E-01
C74 -3.514421220535E-01 -3.335291776363E-02  1.424077011893E-01
C75 -3.514421220535E-01 -4.666470822364E-01 -3.575922988107E-01
C76  3.514421220535E-01  3.335291776363E-02 -1.424077011893E-01
H77  3.413680339739E-01  4.252820599573E-01  2.015604576207E-01
H78 -3.413680339739E-01 -7.471794004266E-02  2.984395423793E-01
H79 -3.413680339739E-01 -4.252820599573E-01 -2.015604576207E-01
H80  3.413680339739E-01  7.471794004266E-02 -2.984395423793E-01
C81 -4.855748295833E-01 -4.390667585500E-01 -3.022575131057E-01
C82  4.855748295833E-01  6.093324145002E-02 -1.977424868943E-01
C83  4.855748295833E-01  4.390667585500E-01  3.022575131057E-01
C84 -4.855748295833E-01 -6.093324145002E-02  1.977424868943E-01
H85 -4.745507743686E-01 -3.913628690539E-01 -1.493683345598E-01
H86  4.745507743686E-01  1.086371309461E-01 -3.506316654402E-01
H87  4.745507743686E-01  3.913628690539E-01  1.493683345598E-01
H88 -4.745507743686E-01 -1.086371309461E-01  3.506316654402E-01


#===END

data_OPT_STEP_53

_symmetry_space_group_name_H-M 'P 1'
_cell_length_a     18.07806086
_cell_length_b      8.13749359
_cell_length_c      6.52734572
_cell_angle_alpha   90.000000
_cell_angle_beta   90.967241
_cell_angle_gamma   90.000000

loop_
_atom_site_label
_atom_site_fract_x
_atom_site_fract_y
_atom_site_fract_z
C1  1.624469999080E-01 -3.878543463574E-01  4.741402756194E-01
C2 -1.624469999080E-01  1.121456536426E-01  2.585972438060E-02
C3 -1.624469999080E-01  3.878543463574E-01 -4.741402756194E-01
C4  1.624469999080E-01 -1.121456536426E-01 -2.585972438060E-02
H5  1.777424046045E-01 -2.950978575342E-01 -4.139409308644E-01
H6 -1.777424046045E-01  2.049021424658E-01 -8.605906913555E-02
H7 -1.777424046045E-01  2.950978575342E-01  4.139409308644E-01
H8  1.777424046045E-01 -2.049021424658E-01  8.605906913555E-02
C9  8.983085582634E-02 -3.935339674601E-01  4.015130992273E-01
C10 -8.983085582634E-02  1.064660325399E-01  9.848690077269E-02
C11 -8.983085582634E-02  3.935339674601E-01 -4.015130992273E-01
C12  8.983085582634E-02 -1.064660325399E-01 -9.848690077269E-02
H13  4.977964485140E-02 -3.075946044334E-01  4.609247578744E-01
H14 -4.977964485140E-02  1.924053955666E-01  3.907524212556E-02
H15 -4.977964485140E-02  3.075946044334E-01 -4.609247578744E-01
H16  4.977964485140E-02 -1.924053955666E-01 -3.907524212556E-02
C17  6.860441063417E-02  4.910562828901E-01  2.546406226236E-01
C18 -6.860441063417E-02 -8.943717109949E-03  2.453593773764E-01
C19 -6.860441063417E-02 -4.910562828901E-01 -2.546406226236E-01
C20  6.860441063417E-02  8.943717109949E-03 -2.453593773764E-01
H21  1.170646789325E-02  4.860467651099E-01  1.998870830886E-01
H22 -1.170646789325E-02 -1.395323489009E-02  3.001129169114E-01
H23 -1.170646789325E-02 -4.860467651099E-01 -1.998870830886E-01
H24  1.170646789325E-02  1.395323489009E-02 -3.001129169114E-01
C25  1.208926353811E-01  3.811981693663E-01  1.811486255796E-01
C26 -1.208926353811E-01 -1.188018306337E-01  3.188513744204E-01
C27 -1.208926353811E-01 -3.811981693663E-01 -1.811486255796E-01
C28  1.208926353811E-01  1.188018306337E-01 -3.188513744204E-01
H29  1.053919492808E-01  2.895393826086E-01  6.793469866821E-02
H30 -1.053919492808E-01 -2.104606173914E-01  4.320653013318E-01
H31 -1.053919492808E-01 -2.895393826086E-01 -6.793469866821E-02
H32  1.053919492808E-01  2.104606173914E-01 -4.320653013318E-01
C33  1.934288890633E-01  3.863422079894E-01  2.546788047609E-01
C34 -1.934288890633E-01 -1.136577920106E-01  2.453211952391E-01
C35 -1.934288890633E-01 -3.863422079894E-01 -2.546788047609E-01
C36  1.934288890633E-01  1.136577920106E-01 -2.453211952391E-01
H37  2.327743716523E-01  2.967527255159E-01  1.999848349024E-01
H38 -2.327743716523E-01 -2.032472744841E-01  3.000151650976E-01
H39 -2.327743716523E-01 -2.967527255159E-01 -1.999848349024E-01
H40  2.327743716523E-01  2.032472744841E-01 -3.000151650976E-01
C41  2.157574833250E-01 -4.978585974245E-01  4.021452513569E-01
C42 -2.157574833250E-01  2.141402575524E-03  9.785474864311E-02
C43 -2.157574833250E-01  4.978585974245E-01 -4.021452513569E-01
C44  2.157574833250E-01 -2.141402575524E-03 -9.785474864311E-02
C45  2.932790879166E-01 -4.900303087632E-01  4.788795118434E-01
C46 -2.932790879166E-01  9.969691236806E-03  2.112048815656E-02
C47 -2.932790879166E-01  4.900303087632E-01 -4.788795118434E-01
C48  2.932790879166E-01 -9.969691236806E-03 -2.112048815656E-02
C49  3.091248211307E-01 -4.325336254562E-01 -3.176789164231E-01
C50 -3.091248211307E-01  6.746637454380E-02 -1.823210835769E-01
C51 -3.091248211307E-01  4.325336254562E-01  3.176789164231E-01
C52  3.091248211307E-01 -6.746637454380E-02  1.823210835769E-01
H53  2.636962437136E-01 -4.026389240991E-01 -2.182616985333E-01
H54 -2.636962437136E-01  9.736107590088E-02 -2.817383014667E-01
H55 -2.636962437136E-01  4.026389240991E-01  2.182616985333E-01
H56  2.636962437136E-01 -9.736107590088E-02  2.817383014667E-01
C57  3.798990162700E-01 -4.162549450003E-01 -2.459573486929E-01
C58 -3.798990162700E-01  8.374505499968E-02 -2.540426513071E-01
C59 -3.798990162700E-01  4.162549450003E-01  2.459573486929E-01
C60  3.798990162700E-01 -8.374505499968E-02  2.540426513071E-01
H61  3.904203374341E-01 -3.709157480349E-01 -9.204381374690E-02
H62 -3.904203374341E-01  1.290842519651E-01 -4.079561862531E-01
H63 -3.904203374341E-01  3.709157480349E-01  9.204381374690E-02
H64  3.904203374341E-01 -1.290842519651E-01  4.079561862531E-01
C65  4.412794165885E-01 -4.574099342208E-01 -3.703186625355E-01
C66 -4.412794165885E-01  4.259006577919E-02 -1.296813374645E-01
C67 -4.412794165885E-01  4.574099342208E-01  3.703186625355E-01
C68  4.412794165885E-01 -4.259006577919E-02  1.296813374645E-01
C69  4.262942142746E-01  4.806230616078E-01  4.267927088089E-01
C70 -4.262942142746E-01 -1.937693839216E-02  7.320729119105E-02
C71 -4.262942142746E-01 -4.806230616078E-01 -4.267927088089E-01
C72  4.262942142746E-01  1.937693839216E-02 -7.320729119105E-02
C73  3.514907732283E-01  4.666727734746E-01  3.576329862653E-01
C74 -3.514907732283E-01 -3.332722652542E-02  1.423670137347E-01
C75 -3.514907732283E-01 -4.666727734746E-01 -3.576329862653E-01
C76  3.514907732283E-01  3.332722652542E-02 -1.423670137347E-01
H77  3.414564712239E-01  4.253286136144E-01  2.017166659204E-01
H78 -3.414564712239E-01 -7.467138638559E-02  2.982833340796E-01
H79 -3.414564712239E-01 -4.253286136144E-01 -2.017166659204E-01
H80  3.414564712239E-01  7.467138638559E-02 -2.982833340796E-01
C81 -4.856296867531E-01 -4.391072989518E-01 -3.023812507675E-01
C82  4.856296867531E-01  6.089270104816E-02 -1.976187492325E-01
C83  4.856296867531E-01  4.391072989518E-01  3.023812507675E-01
C84 -4.856296867531E-01 -6.089270104816E-02  1.976187492325E-01
H85 -4.746471988506E-01 -3.914264888037E-01 -1.495906336345E-01
H86  4.746471988506E-01  1.085735111963E-01 -3.504093663655E-01
H87  4.746471988506E-01  3.914264888037E-01  1.495906336345E-01
H88 -4.746471988506E-01 -1.085735111963E-01  3.504093663655E-01


#===END

data_OPT_STEP_54

_symmetry_space_group_name_H-M 'P 1'
_cell_length_a     18.07945072
_cell_length_b      8.11226083
_cell_length_c      6.54141311
_cell_angle_alpha   90.000000
_cell_angle_beta   90.888556
_cell_angle_gamma   90.000000

loop_
_atom_site_label
_atom_site_fract_x
_atom_site_fract_y
_atom_site_fract_z
C1  1.625036560542E-01 -3.875335912315E-01  4.738968457627E-01
C2 -1.625036560542E-01  1.124664087685E-01  2.610315423728E-02
C3 -1.625036560542E-01  3.875335912315E-01 -4.738968457627E-01
C4  1.625036560542E-01 -1.124664087685E-01 -2.610315423728E-02
H5  1.777426705432E-01 -2.944886009381E-01 -4.144333951820E-01
H6 -1.777426705432E-01  2.055113990619E-01 -8.556660481802E-02
H7 -1.777426705432E-01  2.944886009381E-01  4.144333951820E-01
H8  1.777426705432E-01 -2.055113990619E-01  8.556660481802E-02
C9  8.993881004261E-02 -3.931863203953E-01  4.013422913511E-01
C10 -8.993881004261E-02  1.068136796047E-01  9.865770864893E-02
C11 -8.993881004261E-02  3.931863203953E-01 -4.013422913511E-01
C12  8.993881004261E-02 -1.068136796047E-01 -9.865770864893E-02
H13  4.986242421812E-02 -3.069442965476E-01  4.605381204732E-01
H14 -4.986242421812E-02  1.930557034524E-01  3.946187952684E-02
H15 -4.986242421812E-02  3.069442965476E-01 -4.605381204732E-01
H16  4.986242421812E-02 -1.930557034524E-01 -3.946187952684E-02
C17  6.879265852233E-02  4.910562387331E-01  2.547691539292E-01
C18 -6.879265852233E-02 -8.943761266948E-03  2.452308460708E-01
C19 -6.879265852233E-02 -4.910562387331E-01 -2.547691539292E-01
C20  6.879265852233E-02  8.943761266948E-03 -2.452308460708E-01
H21  1.193546072498E-02  4.861168955907E-01  2.000414769676E-01
H22 -1.193546072498E-02 -1.388310440926E-02  2.999585230324E-01
H23 -1.193546072498E-02 -4.861168955907E-01 -2.000414769676E-01
H24  1.193546072498E-02  1.388310440926E-02 -2.999585230324E-01
C25  1.211048822437E-01  3.808068453891E-01  1.815131935968E-01
C26 -1.211048822437E-01 -1.191931546109E-01  3.184868064032E-01
C27 -1.211048822437E-01 -3.808068453891E-01 -1.815131935968E-01
C28  1.211048822437E-01  1.191931546109E-01 -3.184868064032E-01
H29  1.056648024615E-01  2.888522231788E-01  6.855958566033E-02
H30 -1.056648024615E-01 -2.111477768212E-01  4.314404143397E-01
H31 -1.056648024615E-01 -2.888522231788E-01 -6.855958566033E-02
H32  1.056648024615E-01  2.111477768212E-01 -4.314404143397E-01
C33  1.935912365023E-01  3.859348326251E-01  2.549516017678E-01
C34 -1.935912365023E-01 -1.140651673749E-01  2.450483982322E-01
C35 -1.935912365023E-01 -3.859348326251E-01 -2.549516017678E-01
C36  1.935912365023E-01  1.140651673749E-01 -2.450483982322E-01
H37  2.329642574381E-01  2.960507026309E-01  2.004399833998E-01
H38 -2.329642574381E-01 -2.039492973691E-01  2.995600166002E-01
H39 -2.329642574381E-01 -2.960507026309E-01 -2.004399833998E-01
H40  2.329642574381E-01  2.039492973691E-01 -2.995600166002E-01
C41  2.158391134651E-01 -4.979156440203E-01  4.021087228618E-01
C42 -2.158391134651E-01  2.084355979699E-03  9.789127713821E-02
C43 -2.158391134651E-01  4.979156440203E-01 -4.021087228618E-01
C44  2.158391134651E-01 -2.084355979699E-03 -9.789127713821E-02
C45  2.933080417020E-01 -4.901210728000E-01  4.787523390529E-01
C46 -2.933080417020E-01  9.878927199987E-03  2.124766094708E-02
C47 -2.933080417020E-01  4.901210728000E-01 -4.787523390529E-01
C48  2.933080417020E-01 -9.878927199987E-03 -2.124766094708E-02
C49  3.090174380885E-01 -4.327036301992E-01 -3.181175807750E-01
C50 -3.090174380885E-01  6.729636980084E-02 -1.818824192250E-01
C51 -3.090174380885E-01  4.327036301992E-01  3.181175807750E-01
C52  3.090174380885E-01 -6.729636980085E-02  1.818824192250E-01
H53  2.635223781727E-01 -4.028352934151E-01 -2.189301674339E-01
H54 -2.635223781727E-01  9.716470658495E-02 -2.810698325661E-01
H55 -2.635223781727E-01  4.028352934151E-01  2.189301674339E-01
H56  2.635223781727E-01 -9.716470658495E-02  2.810698325661E-01
C57  3.797393820427E-01 -4.164769226703E-01 -2.464275416116E-01
C58 -3.797393820427E-01  8.352307732975E-02 -2.535724583884E-01
C59 -3.797393820427E-01  4.164769226703E-01  2.464275416116E-01
C60  3.797393820427E-01 -8.352307732975E-02  2.535724583884E-01
H61  3.901614792021E-01 -3.711877084210E-01 -9.275208814824E-02
H62 -3.901614792021E-01  1.288122915790E-01 -4.072479118518E-01
H63 -3.901614792021E-01  3.711877084210E-01  9.275208814824E-02
H64  3.901614792021E-01 -1.288122915790E-01  4.072479118518E-01
C65  4.411966789981E-01 -4.575413476154E-01 -3.705482090356E-01
C66 -4.411966789981E-01  4.245865238462E-02 -1.294517909644E-01
C67 -4.411966789981E-01  4.575413476154E-01  3.705482090356E-01
C68  4.411966789981E-01 -4.245865238462E-02  1.294517909644E-01
C69  4.263473964628E-01  4.805906492262E-01  4.268455677441E-01
C70 -4.263473964628E-01 -1.940935077381E-02  7.315443225590E-02
C71 -4.263473964628E-01 -4.805906492262E-01 -4.268455677441E-01
C72  4.263473964628E-01  1.940935077381E-02 -7.315443225590E-02
C73  3.515934461505E-01  4.666223003075E-01  3.577387261394E-01
C74 -3.515934461505E-01 -3.337769969248E-02  1.422612738606E-01
C75 -3.515934461505E-01 -4.666223003075E-01 -3.577387261394E-01
C76  3.515934461505E-01  3.337769969248E-02 -1.422612738606E-01
H77  3.416582416051E-01  4.253286874782E-01  2.020772000267E-01
H78 -3.416582416051E-01 -7.467131252185E-02  2.979227999733E-01
H79 -3.416582416051E-01 -4.253286874782E-01 -2.020772000267E-01
H80  3.416582416051E-01  7.467131252185E-02 -2.979227999733E-01
C81 -4.857619930844E-01 -4.392096930357E-01 -3.026559378270E-01
C82  4.857619930844E-01  6.079030696427E-02 -1.973440621730E-01
C83  4.857619930844E-01  4.392096930357E-01  3.026559378270E-01
C84 -4.857619930844E-01 -6.079030696427E-02  1.973440621730E-01
H85 -4.748828725986E-01 -3.915896882797E-01 -1.500819570948E-01
H86  4.748828725986E-01  1.084103117203E-01 -3.499180429052E-01
H87  4.748828725986E-01  3.915896882797E-01  1.500819570948E-01
H88 -4.748828725986E-01 -1.084103117203E-01  3.499180429052E-01


#===END

data_OPT_STEP_55

_symmetry_space_group_name_H-M 'P 1'
_cell_length_a     18.07849446
_cell_length_b      8.06374733
_cell_length_c      6.57096407
_cell_angle_alpha   90.000000
_cell_angle_beta   90.703150
_cell_angle_gamma   90.000000

loop_
_atom_site_label
_atom_site_fract_x
_atom_site_fract_y
_atom_site_fract_z
C1  1.625366432256E-01 -3.871398241010E-01  4.736976368604E-01
C2 -1.625366432256E-01  1.128601758990E-01  2.630236313964E-02
C3 -1.625366432256E-01  3.871398241010E-01 -4.736976368604E-01
C4  1.625366432256E-01 -1.128601758990E-01 -2.630236313964E-02
H5  1.776356381720E-01 -2.937127982019E-01 -4.149168044757E-01
H6 -1.776356381720E-01  2.062872017981E-01 -8.508319552425E-02
H7 -1.776356381720E-01  2.937127982019E-01  4.149168044757E-01
H8  1.776356381720E-01 -2.062872017981E-01  8.508319552425E-02
C9  9.007858817287E-02 -3.926356405941E-01  4.012538926312E-01
C10 -9.007858817287E-02  1.073643594059E-01  9.874610736877E-02
C11 -9.007858817287E-02  3.926356405941E-01 -4.012538926312E-01
C12  9.007858817287E-02 -1.073643594059E-01 -9.874610736877E-02
H13  4.992887087617E-02 -3.059077132492E-01  4.602135949033E-01
H14 -4.992887087617E-02  1.940922867508E-01  3.978640509673E-02
H15 -4.992887087617E-02  3.059077132492E-01 -4.602135949033E-01
H16  4.992887087617E-02 -1.940922867508E-01 -3.978640509673E-02
C17  6.912909915599E-02  4.911681239486E-01  2.550018260224E-01
C18 -6.912909915599E-02 -8.831876051384E-03  2.449981739776E-01
C19 -6.912909915599E-02 -4.911681239486E-01 -2.550018260224E-01
C20  6.912909915599E-02  8.831876051384E-03 -2.449981739776E-01
H21  1.235553977147E-02  4.864317660675E-01  2.002966853530E-01
H22 -1.235553977147E-02 -1.356823393251E-02  2.997033146470E-01
H23 -1.235553977147E-02 -4.864317660675E-01 -2.002966853530E-01
H24  1.235553977147E-02  1.356823393251E-02 -2.997033146470E-01
C25  1.215234888521E-01  3.802964584812E-01  1.819668441857E-01
C26 -1.215234888521E-01 -1.197035415188E-01  3.180331558143E-01
C27 -1.215234888521E-01 -3.802964584812E-01 -1.819668441857E-01
C28  1.215234888521E-01  1.197035415188E-01 -3.180331558143E-01
H29  1.062365466724E-01  2.879723506773E-01  6.927817808746E-02
H30 -1.062365466724E-01 -2.120276493227E-01  4.307218219125E-01
H31 -1.062365466724E-01 -2.879723506773E-01 -6.927817808746E-02
H32  1.062365466724E-01  2.120276493227E-01 -4.307218219125E-01
C33  1.939058939663E-01  3.852863459381E-01  2.552607407503E-01
C34 -1.939058939663E-01 -1.147136540619E-01  2.447392592497E-01
C35 -1.939058939663E-01 -3.852863459381E-01 -2.552607407503E-01
C36  1.939058939663E-01  1.147136540619E-01 -2.447392592497E-01
H37  2.333565546475E-01  2.949396018870E-01  2.008862621794E-01
H38 -2.333565546475E-01 -2.050603981130E-01  2.991137378206E-01
H39 -2.333565546475E-01 -2.949396018870E-01 -2.008862621794E-01
H40  2.333565546475E-01  2.050603981130E-01 -2.991137378206E-01
C41  2.159562640036E-01 -4.981211330200E-01  4.020841522069E-01
C42 -2.159562640036E-01  1.878866979998E-03  9.791584779309E-02
C43 -2.159562640036E-01  4.981211330200E-01 -4.020841522069E-01
C44  2.159562640036E-01 -1.878866979999E-03 -9.791584779309E-02
C45  2.933210798341E-01 -4.904700989841E-01  4.785711378901E-01
C46 -2.933210798341E-01  9.529901015919E-03  2.142886210991E-02
C47 -2.933210798341E-01  4.904700989841E-01 -4.785711378901E-01
C48  2.933210798341E-01 -9.529901015919E-03 -2.142886210991E-02
C49  3.087244276741E-01 -4.333411225175E-01 -3.189088118227E-01
C50 -3.087244276741E-01  6.665887748252E-02 -1.810911881773E-01
C51 -3.087244276741E-01  4.333411225175E-01  3.189088118227E-01
C52  3.087244276741E-01 -6.665887748252E-02  1.810911881773E-01
H53  2.630710022960E-01 -4.036544605316E-01 -2.201434464906E-01
H54 -2.630710022960E-01  9.634553946845E-02 -2.798565535094E-01
H55 -2.630710022960E-01  4.036544605316E-01  2.201434464906E-01
H56  2.630710022960E-01 -9.634553946845E-02  2.798565535094E-01
C57  3.793440463427E-01 -4.171843406140E-01 -2.473140146776E-01
C58 -3.793440463427E-01  8.281565938602E-02 -2.526859853224E-01
C59 -3.793440463427E-01  4.171843406140E-01  2.473140146776E-01
C60  3.793440463427E-01 -8.281565938602E-02  2.526859853224E-01
H61  3.895421681972E-01 -3.720792272930E-01 -9.411069680557E-02
H62 -3.895421681972E-01  1.279207727070E-01 -4.058893031944E-01
H63 -3.895421681972E-01  3.720792272930E-01  9.411069680557E-02
H64  3.895421681972E-01 -1.279207727070E-01  4.058893031944E-01
C65  4.409935348041E-01 -4.579210059144E-01 -3.709873507775E-01
C66 -4.409935348041E-01  4.207899408562E-02 -1.290126492225E-01
C67 -4.409935348041E-01  4.579210059144E-01  3.709873507775E-01
C68  4.409935348041E-01 -4.207899408562E-02  1.290126492225E-01
C69  4.264495579571E-01  4.804805778188E-01  4.269858706619E-01
C70 -4.264495579571E-01 -1.951942218122E-02  7.301412933812E-02
C71 -4.264495579571E-01 -4.804805778188E-01 -4.269858706619E-01
C72  4.264495579571E-01  1.951942218122E-02 -7.301412933812E-02
C73  3.517907850081E-01  4.664527999067E-01  3.580143840213E-01
C74 -3.517907850081E-01 -3.354720009328E-02  1.419856159787E-01
C75 -3.517907850081E-01 -4.664527999067E-01 -3.580143840213E-01
C76  3.517907850081E-01  3.354720009328E-02 -1.419856159787E-01
H77  3.420815769609E-01  4.253023196317E-01  2.028802497288E-01
H78 -3.420815769609E-01 -7.469768036833E-02  2.971197502712E-01
H79 -3.420815769609E-01 -4.253023196317E-01 -2.028802497288E-01
H80  3.420815769609E-01  7.469768036833E-02 -2.971197502712E-01
C81 -4.860603767251E-01 -4.394842015424E-01 -3.032183799624E-01
C82  4.860603767251E-01  6.051579845761E-02 -1.967816200376E-01
C83  4.860603767251E-01  4.394842015424E-01  3.032183799624E-01
C84 -4.860603767251E-01 -6.051579845761E-02  1.967816200376E-01
H85 -4.754171114477E-01 -3.920362630107E-01 -1.510881859261E-01
H86  4.754171114477E-01  1.079637369893E-01 -3.489118140739E-01
H87  4.754171114477E-01  3.920362630107E-01  1.510881859261E-01
H88 -4.754171114477E-01 -1.079637369893E-01  3.489118140739E-01


#===END

data_OPT_STEP_56

_symmetry_space_group_name_H-M 'P 1'
_cell_length_a     18.06871857
_cell_length_b      7.98053530
_cell_length_c      6.62760988
_cell_angle_alpha   90.000000
_cell_angle_beta   90.245861
_cell_angle_gamma   90.000000

loop_
_atom_site_label
_atom_site_fract_x
_atom_site_fract_y
_atom_site_fract_z
C1  1.624532485327E-01 -3.867374252888E-01  4.734471314261E-01
C2 -1.624532485327E-01  1.132625747112E-01  2.655286857394E-02
C3 -1.624532485327E-01  3.867374252888E-01 -4.734471314261E-01
C4  1.624532485327E-01 -1.132625747112E-01 -2.655286857394E-02
H5  1.771944119229E-01 -2.928691369422E-01 -4.154197849184E-01
H6 -1.771944119229E-01  2.071308630578E-01 -8.458021508161E-02
H7 -1.771944119229E-01  2.928691369422E-01  4.154197849184E-01
H8  1.771944119229E-01 -2.071308630578E-01  8.458021508161E-02
C9  9.019963749592E-02 -3.919280596052E-01  4.012844668880E-01
C10 -9.019963749592E-02  1.080719403948E-01  9.871553311197E-02
C11 -9.019963749592E-02  3.919280596052E-01 -4.012844668880E-01
C12  9.019963749592E-02 -1.080719403948E-01 -9.871553311197E-02
H13  4.982356045581E-02 -3.045821395998E-01  4.601627212201E-01
H14 -4.982356045581E-02  1.954178604002E-01  3.983727877992E-02
H15 -4.982356045581E-02  3.045821395998E-01 -4.601627212201E-01
H16  4.982356045581E-02 -1.954178604002E-01 -3.983727877992E-02
C17  6.973720477764E-02  4.914199839514E-01  2.553185390323E-01
C18 -6.973720477764E-02 -8.580016048619E-03  2.446814609677E-01
C19 -6.973720477764E-02 -4.914199839514E-01 -2.553185390323E-01
C20  6.973720477764E-02  8.580016048618E-03 -2.446814609677E-01
H21  1.312914802477E-02  4.870233544342E-01  2.007190932386E-01
H22 -1.312914802477E-02 -1.297664556582E-02  2.992809067614E-01
H23 -1.312914802477E-02 -4.870233544342E-01 -2.007190932386E-01
H24  1.312914802477E-02  1.297664556582E-02 -2.992809067614E-01
C25  1.224021901217E-01  3.797381056511E-01  1.823020490987E-01
C26 -1.224021901217E-01 -1.202618943489E-01  3.176979509013E-01
C27 -1.224021901217E-01 -3.797381056511E-01 -1.823020490987E-01
C28  1.224021901217E-01  1.202618943489E-01 -3.176979509013E-01
H29  1.074857588579E-01  2.870358517734E-01  6.980859186162E-02
H30 -1.074857588579E-01 -2.129641482266E-01  4.301914081384E-01
H31 -1.074857588579E-01 -2.870358517734E-01 -6.980859186162E-02
H32  1.074857588579E-01  2.129641482266E-01 -4.301914081384E-01
C33  1.945804961230E-01  3.844344017913E-01  2.552875552497E-01
C34 -1.945804961230E-01 -1.155655982087E-01  2.447124447503E-01
C35 -1.945804961230E-01 -3.844344017913E-01 -2.552875552497E-01
C36  1.945804961230E-01  1.155655982087E-01 -2.447124447503E-01
H37  2.342505184800E-01  2.934687582451E-01  2.008531064372E-01
H38 -2.342505184800E-01 -2.065312417549E-01  2.991468935628E-01
H39 -2.342505184800E-01 -2.934687582451E-01 -2.008531064372E-01
H40  2.342505184800E-01  2.065312417549E-01 -2.991468935628E-01
C41  2.161431155896E-01 -4.985136101516E-01  4.018126452322E-01
C42 -2.161431155896E-01  1.486389848388E-03  9.818735476782E-02
C43 -2.161431155896E-01  4.985136101516E-01 -4.018126452322E-01
C44  2.161431155896E-01 -1.486389848388E-03 -9.818735476782E-02
C45  2.932844635247E-01 -4.911585166300E-01  4.780413389105E-01
C46 -2.932844635247E-01  8.841483370005E-03  2.195866108950E-02
C47 -2.932844635247E-01  4.911585166300E-01 -4.780413389105E-01
C48  2.932844635247E-01 -8.841483370005E-03 -2.195866108950E-02
C49  3.079532956053E-01 -4.346371404485E-01 -3.205938158513E-01
C50 -3.079532956053E-01  6.536285955153E-02 -1.794061841487E-01
C51 -3.079532956053E-01  4.346371404485E-01  3.205938158513E-01
C52  3.079532956053E-01 -6.536285955154E-02  1.794061841487E-01
H53  2.619076868013E-01 -4.054237397179E-01 -2.226169345805E-01
H54 -2.619076868013E-01  9.457626028209E-02 -2.773830654195E-01
H55 -2.619076868013E-01  4.054237397179E-01  2.226169345805E-01
H56  2.619076868013E-01 -9.457626028209E-02  2.773830654195E-01
C57  3.783516220770E-01 -4.185596456494E-01 -2.491622604022E-01
C58 -3.783516220770E-01  8.144035435060E-02 -2.508377395978E-01
C59 -3.783516220770E-01  4.185596456494E-01  2.491622604022E-01
C60  3.783516220770E-01 -8.144035435060E-02  2.508377395978E-01
H61  3.880149788803E-01 -3.738343828811E-01 -9.686234697120E-02
H62 -3.880149788803E-01  1.261656171189E-01 -4.031376530288E-01
H63 -3.880149788803E-01  3.738343828811E-01  9.686234697120E-02
H64  3.880149788803E-01 -1.261656171189E-01  4.031376530288E-01
C65  4.404873609840E-01 -4.586212893968E-01 -3.719245657326E-01
C66 -4.404873609840E-01  4.137871060324E-02 -1.280754342674E-01
C67 -4.404873609840E-01  4.586212893968E-01  3.719245657326E-01
C68  4.404873609840E-01 -4.137871060324E-02  1.280754342674E-01
C69  4.266776098608E-01  4.802781632746E-01  4.271996360641E-01
C70 -4.266776098608E-01 -1.972183672544E-02  7.280036393591E-02
C71 -4.266776098608E-01 -4.802781632746E-01 -4.271996360641E-01
C72  4.266776098608E-01  1.972183672544E-02 -7.280036393591E-02
C73  3.522260947658E-01  4.661378713958E-01  3.584247322662E-01
C74 -3.522260947658E-01 -3.386212860417E-02  1.415752677338E-01
C75 -3.522260947658E-01 -4.661378713958E-01 -3.584247322662E-01
C76  3.522260947658E-01  3.386212860417E-02 -1.415752677338E-01
H77  3.430552350599E-01  4.252450425563E-01  2.043263770205E-01
H78 -3.430552350599E-01 -7.475495744372E-02  2.956736229795E-01
H79 -3.430552350599E-01 -4.252450425563E-01 -2.043263770205E-01
H80  3.430552350599E-01  7.475495744372E-02 -2.956736229795E-01
C81 -4.867772916519E-01 -4.399833708638E-01 -3.043340201836E-01
C82  4.867772916519E-01  6.001662913618E-02 -1.956659798164E-01
C83  4.867772916519E-01  4.399833708638E-01  3.043340201836E-01
C84 -4.867772916519E-01 -6.001662913618E-02  1.956659798164E-01
H85 -4.766891000305E-01 -3.928494526779E-01 -1.530834477936E-01
H86  4.766891000305E-01  1.071505473221E-01 -3.469165522064E-01
H87  4.766891000305E-01  3.928494526779E-01  1.530834477936E-01
H88 -4.766891000305E-01 -1.071505473221E-01  3.469165522064E-01


#===END

data_OPT_STEP_57

_symmetry_space_group_name_H-M 'P 1'
_cell_length_a     18.06695686
_cell_length_b      7.97631693
_cell_length_c      6.63360358
_cell_angle_alpha   90.000000
_cell_angle_beta   90.221010
_cell_angle_gamma   90.000000

loop_
_atom_site_label
_atom_site_fract_x
_atom_site_fract_y
_atom_site_fract_z
C1  1.624284490795E-01 -3.866606096887E-01  4.733397877114E-01
C2 -1.624284490795E-01  1.133393903113E-01  2.666021228858E-02
C3 -1.624284490795E-01  3.866606096887E-01 -4.733397877114E-01
C4  1.624284490795E-01 -1.133393903113E-01 -2.666021228858E-02
H5  1.771540475280E-01 -2.927758146886E-01 -4.155879941543E-01
H6 -1.771540475280E-01  2.072241853114E-01 -8.441200584571E-02
H7 -1.771540475280E-01  2.927758146886E-01  4.155879941543E-01
H8  1.771540475280E-01 -2.072241853114E-01  8.441200584571E-02
C9  9.018353726196E-02 -3.918471954028E-01  4.012580955084E-01
C10 -9.018353726196E-02  1.081528045972E-01  9.874190449157E-02
C11 -9.018353726196E-02  3.918471954028E-01 -4.012580955084E-01
C12  9.018353726196E-02 -1.081528045972E-01 -9.874190449157E-02
H13  4.979767242706E-02 -3.044507750260E-01  4.601132573307E-01
H14 -4.979767242706E-02  1.955492249740E-01  3.988674266927E-02
H15 -4.979767242706E-02  3.044507750260E-01 -4.601132573307E-01
H16  4.979767242706E-02 -1.955492249740E-01 -3.988674266927E-02
C17  6.974716597703E-02  4.914325042053E-01  2.554364674258E-01
C18 -6.974716597703E-02 -8.567495794729E-03  2.445635325742E-01
C19 -6.974716597703E-02 -4.914325042053E-01 -2.554364674258E-01
C20  6.974716597703E-02  8.567495794729E-03 -2.445635325742E-01
H21  1.314734676024E-02  4.869987253821E-01  2.008833237428E-01
H22 -1.314734676024E-02 -1.300127461790E-02  2.991166762572E-01
H23 -1.314734676024E-02 -4.869987253821E-01 -2.008833237428E-01
H24  1.314734676024E-02  1.300127461790E-02 -2.991166762572E-01
C25  1.224295399025E-01  3.797093180679E-01  1.824576839021E-01
C26 -1.224295399025E-01 -1.202906819321E-01  3.175423160979E-01
C27 -1.224295399025E-01 -3.797093180679E-01 -1.824576839021E-01
C28  1.224295399025E-01  1.202906819321E-01 -3.175423160979E-01
H29  1.075240302011E-01  2.869891229031E-01  7.004899273011E-02
H30 -1.075240302011E-01 -2.130108770969E-01  4.299510072699E-01
H31 -1.075240302011E-01 -2.869891229031E-01 -7.004899273011E-02
H32  1.075240302011E-01  2.130108770969E-01 -4.299510072699E-01
C33  1.945988404735E-01  3.844092702396E-01  2.553483927590E-01
C34 -1.945988404735E-01 -1.155907297604E-01  2.446516072410E-01
C35 -1.945988404735E-01 -3.844092702396E-01 -2.553483927590E-01
C36  1.945988404735E-01  1.155907297604E-01 -2.446516072410E-01
H37  2.342824396810E-01  2.934132957342E-01  2.009482737528E-01
H38 -2.342824396810E-01 -2.065867042658E-01  2.990517262472E-01
H39 -2.342824396810E-01 -2.934132957342E-01 -2.009482737528E-01
H40  2.342824396810E-01  2.065867042658E-01 -2.990517262472E-01
C41  2.161354860341E-01 -4.984814921209E-01  4.017438393390E-01
C42 -2.161354860341E-01  1.518507879131E-03  9.825616066097E-02
C43 -2.161354860341E-01  4.984814921209E-01 -4.017438393390E-01
C44  2.161354860341E-01 -1.518507879131E-03 -9.825616066097E-02
C45  2.932664925555E-01 -4.911797426685E-01  4.779525653511E-01
C46 -2.932664925555E-01  8.820257331496E-03  2.204743464886E-02
C47 -2.932664925555E-01  4.911797426685E-01 -4.779525653511E-01
C48  2.932664925555E-01 -8.820257331496E-03 -2.204743464886E-02
C49  3.078899584220E-01 -4.347816967690E-01 -3.207970325325E-01
C50 -3.078899584220E-01  6.521830323096E-02 -1.792029674675E-01
C51 -3.078899584220E-01  4.347816967690E-01  3.207970325325E-01
C52  3.078899584220E-01 -6.521830323096E-02  1.792029674675E-01
H53  2.618166627756E-01 -4.056281014993E-01 -2.229032152787E-01
H54 -2.618166627756E-01  9.437189850073E-02 -2.770967847213E-01
H55 -2.618166627756E-01  4.056281014993E-01  2.229032152787E-01
H56  2.618166627756E-01 -9.437189850073E-02  2.770967847213E-01
C57  3.782771134598E-01 -4.187486114508E-01 -2.493764639178E-01
C58 -3.782771134598E-01  8.125138854918E-02 -2.506235360822E-01
C59 -3.782771134598E-01  4.187486114508E-01  2.493764639178E-01
C60  3.782771134598E-01 -8.125138854918E-02  2.506235360822E-01
H61  3.878981495552E-01 -3.741284583081E-01 -9.715345636792E-02
H62 -3.878981495552E-01  1.258715416919E-01 -4.028465436321E-01
H63 -3.878981495552E-01  3.741284583081E-01  9.715345636792E-02
H64  3.878981495552E-01 -1.258715416919E-01  4.028465436321E-01
C65  4.404478064903E-01 -4.587144651620E-01 -3.720384501805E-01
C66 -4.404478064903E-01  4.128553483798E-02 -1.279615498195E-01
C67 -4.404478064903E-01  4.587144651620E-01  3.720384501805E-01
C68  4.404478064903E-01 -4.128553483798E-02  1.279615498195E-01
C69  4.266858010605E-01  4.802886977865E-01  4.271948534295E-01
C70 -4.266858010605E-01 -1.971130221347E-02  7.280514657053E-02
C71 -4.266858010605E-01 -4.802886977865E-01 -4.271948534295E-01
C72  4.266858010605E-01  1.971130221347E-02 -7.280514657053E-02
C73  3.522407688236E-01  4.661814125360E-01  3.584269302463E-01
C74 -3.522407688236E-01 -3.381858746405E-02  1.415730697537E-01
C75 -3.522407688236E-01 -4.661814125360E-01 -3.584269302463E-01
C76  3.522407688236E-01  3.381858746405E-02 -1.415730697537E-01
H77  3.431032899047E-01  4.253421854846E-01  2.044290781791E-01
H78 -3.431032899047E-01 -7.465781451537E-02  2.955709218209E-01
H79 -3.431032899047E-01 -4.253421854846E-01 -2.044290781791E-01
H80  3.431032899047E-01  7.465781451537E-02 -2.955709218209E-01
C81 -4.868266665259E-01 -4.400866853885E-01 -3.044341631657E-01
C82  4.868266665259E-01  5.991331461152E-02 -1.955658368343E-01
C83  4.868266665259E-01  4.400866853885E-01  3.044341631657E-01
C84 -4.868266665259E-01 -5.991331461152E-02  1.955658368343E-01
H85 -4.767788789230E-01 -3.930354708663E-01 -1.532694965861E-01
H86  4.767788789230E-01  1.069645291337E-01 -3.467305034139E-01
H87  4.767788789230E-01  3.930354708663E-01  1.532694965861E-01
H88 -4.767788789230E-01 -1.069645291337E-01  3.467305034139E-01


#===END

data_OPT_STEP_58

_symmetry_space_group_name_H-M 'P 1'
_cell_length_a     18.06185660
_cell_length_b      7.96784983
_cell_length_c      6.64345732
_cell_angle_alpha   90.000000
_cell_angle_beta   90.195422
_cell_angle_gamma   90.000000

loop_
_atom_site_label
_atom_site_fract_x
_atom_site_fract_y
_atom_site_fract_z
C1  1.623335776241E-01 -3.866104219690E-01  4.732469187941E-01
C2 -1.623335776241E-01  1.133895780310E-01  2.675308120591E-02
C3 -1.623335776241E-01  3.866104219690E-01 -4.732469187941E-01
C4  1.623335776241E-01 -1.133895780310E-01 -2.675308120591E-02
H5  1.770319404907E-01 -2.927356071294E-01 -4.156930404611E-01
H6 -1.770319404907E-01  2.072643928706E-01 -8.430695953891E-02
H7 -1.770319404907E-01  2.927356071294E-01  4.156930404611E-01
H8  1.770319404907E-01 -2.072643928706E-01  8.430695953891E-02
C9  9.008572430350E-02 -3.917685825752E-01  4.012274548108E-01
C10 -9.008572430350E-02  1.082314174248E-01  9.877254518921E-02
C11 -9.008572430350E-02  3.917685825752E-01 -4.012274548108E-01
C12  9.008572430350E-02 -1.082314174248E-01 -9.877254518921E-02
H13  4.967600682589E-02 -3.043336421095E-01  4.601070777843E-01
H14 -4.967600682589E-02  1.956663578905E-01  3.989292221574E-02
H15 -4.967600682589E-02  3.043336421095E-01 -4.601070777843E-01
H16  4.967600682589E-02 -1.956663578905E-01 -3.989292221574E-02
C17  6.968688327805E-02  4.914747304520E-01  2.555009300058E-01
C18 -6.968688327805E-02 -8.525269548001E-03  2.444990699942E-01
C19 -6.968688327805E-02 -4.914747304520E-01 -2.555009300058E-01
C20  6.968688327805E-02  8.525269548001E-03 -2.444990699942E-01
H21  1.308795552370E-02  4.870272935826E-01  2.009985940923E-01
H22 -1.308795552370E-02 -1.297270641742E-02  2.990014059077E-01
H23 -1.308795552370E-02 -4.870272935826E-01 -2.009985940923E-01
H24  1.308795552370E-02  1.297270641742E-02 -2.990014059077E-01
C25  1.224131822134E-01  3.797205825885E-01  1.825198867605E-01
C26 -1.224131822134E-01 -1.202794174115E-01  3.174801132395E-01
C27 -1.224131822134E-01 -3.797205825885E-01 -1.825198867605E-01
C28  1.224131822134E-01  1.202794174115E-01 -3.174801132395E-01
H29  1.075270232731E-01  2.870025395961E-01  7.016401457502E-02
H30 -1.075270232731E-01 -2.129974604039E-01  4.298359854250E-01
H31 -1.075270232731E-01 -2.870025395961E-01 -7.016401457502E-02
H32  1.075270232731E-01  2.129974604039E-01 -4.298359854250E-01
C33  1.945862206291E-01  3.844092730837E-01  2.553257315062E-01
C34 -1.945862206291E-01 -1.155907269163E-01  2.446742684938E-01
C35 -1.945862206291E-01 -3.844092730837E-01 -2.553257315062E-01
C36  1.945862206291E-01  1.155907269163E-01 -2.446742684938E-01
H37  2.343028174753E-01  2.933972522821E-01  2.009111005776E-01
H38 -2.343028174753E-01 -2.066027477179E-01  2.990888994224E-01
H39 -2.343028174753E-01 -2.933972522821E-01 -2.009111005776E-01
H40  2.343028174753E-01  2.066027477179E-01 -2.990888994224E-01
C41  2.160825741054E-01 -4.984626431077E-01  4.016452388536E-01
C42 -2.160825741054E-01  1.537356892341E-03  9.835476114640E-02
C43 -2.160825741054E-01  4.984626431077E-01 -4.016452388536E-01
C44  2.160825741054E-01 -1.537356892341E-03 -9.835476114640E-02
C45  2.932115713704E-01 -4.912312743895E-01  4.778311274084E-01
C46 -2.932115713704E-01  8.768725610526E-03  2.216887259161E-02
C47 -2.932115713704E-01  4.912312743895E-01 -4.778311274084E-01
C48  2.932115713704E-01 -8.768725610526E-03 -2.216887259161E-02
C49  3.077809888542E-01 -4.350250063560E-01 -3.211073701651E-01
C50 -3.077809888542E-01  6.497499364399E-02 -1.788926298349E-01
C51 -3.077809888542E-01  4.350250063560E-01  3.211073701651E-01
C52  3.077809888542E-01 -6.497499364399E-02  1.788926298349E-01
H53  2.616683280695E-01 -4.059745176891E-01 -2.233396105162E-01
H54 -2.616683280695E-01  9.402548231094E-02 -2.766603894838E-01
H55 -2.616683280695E-01  4.059745176891E-01  2.233396105162E-01
H56  2.616683280695E-01 -9.402548231094E-02  2.766603894838E-01
C57  3.781673242791E-01 -4.190432824643E-01 -2.497155397034E-01
C58 -3.781673242791E-01  8.095671753570E-02 -2.502844602966E-01
C59 -3.781673242791E-01  4.190432824643E-01  2.497155397034E-01
C60  3.781673242791E-01 -8.095671753570E-02  2.502844602966E-01
H61  3.877375076412E-01 -3.745781104813E-01 -9.762473641632E-02
H62 -3.877375076412E-01  1.254218895187E-01 -4.023752635837E-01
H63 -3.877375076412E-01  3.745781104813E-01  9.762473641632E-02
H64  3.877375076412E-01 -1.254218895187E-01  4.023752635837E-01
C65  4.403916231405E-01 -4.588564269620E-01 -3.722194892104E-01
C66 -4.403916231405E-01  4.114357303801E-02 -1.277805107896E-01
C67 -4.403916231405E-01  4.588564269620E-01  3.722194892104E-01
C68  4.403916231405E-01 -4.114357303801E-02  1.277805107896E-01
C69  4.266852739491E-01  4.802996330548E-01  4.272019729078E-01
C70 -4.266852739491E-01 -1.970036694519E-02  7.279802709222E-02
C71 -4.266852739491E-01 -4.802996330548E-01 -4.272019729078E-01
C72  4.266852739491E-01  1.970036694519E-02 -7.279802709222E-02
C73  3.522368895518E-01  4.662364931431E-01  3.584621380659E-01
C74 -3.522368895518E-01 -3.376350685694E-02  1.415378619341E-01
C75 -3.522368895518E-01 -4.662364931431E-01 -3.584621380659E-01
C76  3.522368895518E-01  3.376350685694E-02 -1.415378619341E-01
H77  3.431384468268E-01  4.254876334022E-01  2.046276556601E-01
H78 -3.431384468268E-01 -7.451236659780E-02  2.953723443399E-01
H79 -3.431384468268E-01 -4.254876334022E-01 -2.046276556601E-01
H80  3.431384468268E-01  7.451236659780E-02 -2.953723443399E-01
C81 -4.868853551022E-01 -4.402324211223E-01 -3.046120016754E-01
C82  4.868853551022E-01  5.976757887765E-02 -1.953879983246E-01
C83  4.868853551022E-01  4.402324211223E-01  3.046120016754E-01
C84 -4.868853551022E-01 -5.976757887765E-02  1.953879983246E-01
H85 -4.768867837227E-01 -3.933064578584E-01 -1.535860779264E-01
H86  4.768867837227E-01  1.066935421416E-01 -3.464139220736E-01
H87  4.768867837227E-01  3.933064578584E-01  1.535860779264E-01
H88 -4.768867837227E-01 -1.066935421416E-01  3.464139220736E-01


#===END

data_OPT_STEP_59

_symmetry_space_group_name_H-M 'P 1'
_cell_length_a     18.05452985
_cell_length_b      7.95474729
_cell_length_c      6.65550444
_cell_angle_alpha   90.000000
_cell_angle_beta   90.213962
_cell_angle_gamma   90.000000

loop_
_atom_site_label
_atom_site_fract_x
_atom_site_fract_y
_atom_site_fract_z
C1  1.621797105370E-01 -3.865821678305E-01  4.730335913880E-01
C2 -1.621797105370E-01  1.134178321695E-01  2.696640861197E-02
C3 -1.621797105370E-01  3.865821678305E-01 -4.730335913880E-01
C4  1.621797105370E-01 -1.134178321695E-01 -2.696640861197E-02
H5  1.768667066432E-01 -2.927135444878E-01 -4.158791138007E-01
H6 -1.768667066432E-01  2.072864555122E-01 -8.412088619935E-02
H7 -1.768667066432E-01  2.927135444878E-01  4.158791138007E-01
H8  1.768667066432E-01 -2.072864555122E-01  8.412088619935E-02
C9  8.990254922873E-02 -3.917313591542E-01  4.010864967034E-01
C10 -8.990254922873E-02  1.082686408458E-01  9.891350329661E-02
C11 -8.990254922873E-02  3.917313591542E-01 -4.010864967034E-01
C12  8.990254922873E-02 -1.082686408458E-01 -9.891350329661E-02
H13  4.946646994947E-02 -3.042835113769E-01  4.600566980419E-01
H14 -4.946646994947E-02  1.957164886231E-01  3.994330195813E-02
H15 -4.946646994947E-02  3.042835113769E-01 -4.600566980419E-01
H16  4.946646994947E-02 -1.957164886231E-01 -3.994330195813E-02
C17  6.951713223819E-02  4.914764602274E-01  2.554117174880E-01
C18 -6.951713223819E-02 -8.523539772615E-03  2.445882825120E-01
C19 -6.951713223819E-02 -4.914764602274E-01 -2.554117174880E-01
C20  6.951713223819E-02  8.523539772615E-03 -2.445882825120E-01
H21  1.289657158862E-02  4.870005544178E-01  2.009712826729E-01
H22 -1.289657158862E-02 -1.299944558223E-02  2.990287173271E-01
H23 -1.289657158862E-02 -4.870005544178E-01 -2.009712826729E-01
H24  1.289657158862E-02  1.299944558223E-02 -2.990287173271E-01
C25  1.222897315020E-01  3.796995581303E-01  1.823873218032E-01
C26 -1.222897315020E-01 -1.203004418697E-01  3.176126781968E-01
C27 -1.222897315020E-01 -3.796995581303E-01 -1.823873218032E-01
C28  1.222897315020E-01  1.203004418697E-01 -3.176126781968E-01
H29  1.074037950899E-01  2.869692670170E-01  7.006874038567E-02
H30 -1.074037950899E-01 -2.130307329830E-01  4.299312596143E-01
H31 -1.074037950899E-01 -2.869692670170E-01 -7.006874038567E-02
H32  1.074037950899E-01  2.130307329830E-01 -4.299312596143E-01
C33  1.944903482781E-01  3.843820853244E-01  2.551104445633E-01
C34 -1.944903482781E-01 -1.156179146756E-01  2.448895554367E-01
C35 -1.944903482781E-01 -3.843820853244E-01 -2.551104445633E-01
C36  1.944903482781E-01  1.156179146756E-01 -2.448895554367E-01
H37  2.342411621634E-01  2.933455443937E-01  2.006597285174E-01
H38 -2.342411621634E-01 -2.066544556063E-01  2.993402714826E-01
H39 -2.342411621634E-01 -2.933455443937E-01 -2.006597285174E-01
H40  2.342411621634E-01  2.066544556063E-01 -2.993402714826E-01
C41  2.159721942470E-01 -4.984650438647E-01  4.013921150129E-01
C42 -2.159721942470E-01  1.534956135291E-03  9.860788498713E-02
C43 -2.159721942470E-01  4.984650438647E-01 -4.013921150129E-01
C44  2.159721942470E-01 -1.534956135291E-03 -9.860788498713E-02
C45  2.931246691841E-01 -4.912993927929E-01  4.775740256354E-01
C46 -2.931246691841E-01  8.700607207091E-03  2.242597436459E-02
C47 -2.931246691841E-01  4.912993927929E-01 -4.775740256354E-01
C48  2.931246691841E-01 -8.700607207092E-03 -2.242597436459E-02
C49  3.076788402015E-01 -4.353069803314E-01 -3.215847273084E-01
C50 -3.076788402015E-01  6.469301966862E-02 -1.784152726916E-01
C51 -3.076788402015E-01  4.353069803314E-01  3.215847273084E-01
C52  3.076788402015E-01 -6.469301966862E-02  1.784152726916E-01
H53  2.615413755339E-01 -4.063677057734E-01 -2.239914858052E-01
H54 -2.615413755339E-01  9.363229422655E-02 -2.760085141948E-01
H55 -2.615413755339E-01  4.063677057734E-01  2.239914858052E-01
H56  2.615413755339E-01 -9.363229422655E-02  2.760085141948E-01
C57  3.780873271828E-01 -4.193888278480E-01 -2.501854036835E-01
C58 -3.780873271828E-01  8.061117215204E-02 -2.498145963165E-01
C59 -3.780873271828E-01  4.193888278480E-01  2.501854036835E-01
C60  3.780873271828E-01 -8.061117215204E-02  2.498145963165E-01
H61  3.876354192280E-01 -3.750993803513E-01 -9.825107978079E-02
H62 -3.876354192280E-01  1.249006196487E-01 -4.017489202192E-01
H63 -3.876354192280E-01  3.750993803513E-01  9.825107978079E-02
H64  3.876354192280E-01 -1.249006196487E-01  4.017489202192E-01
C65  4.403514785696E-01 -4.590327081514E-01 -3.724609176649E-01
C66 -4.403514785696E-01  4.096729184860E-02 -1.275390823351E-01
C67 -4.403514785696E-01  4.590327081514E-01  3.724609176649E-01
C68  4.403514785696E-01 -4.096729184860E-02  1.275390823351E-01
C69  4.266620435627E-01  4.803083890713E-01  4.271743992595E-01
C70 -4.266620435627E-01 -1.969161092867E-02  7.282560074047E-02
C71 -4.266620435627E-01 -4.803083890713E-01 -4.271743992595E-01
C72  4.266620435627E-01  1.969161092867E-02 -7.282560074047E-02
C73  3.521886842877E-01  4.662899976434E-01  3.584279171222E-01
C74 -3.521886842877E-01 -3.371000235665E-02  1.415720828779E-01
C75 -3.521886842877E-01 -4.662899976434E-01 -3.584279171221E-01
C76  3.521886842877E-01  3.371000235665E-02 -1.415720828779E-01
H77  3.430990039427E-01  4.256571357966E-01  2.047838279226E-01
H78 -3.430990039427E-01 -7.434286420337E-02  2.952161720774E-01
H79 -3.430990039427E-01 -4.256571357966E-01 -2.047838279226E-01
H80  3.430990039427E-01  7.434286420337E-02 -2.952161720774E-01
C81 -4.869065198328E-01 -4.404070531622E-01 -3.048178032491E-01
C82  4.869065198328E-01  5.959294683778E-02 -1.951821967509E-01
C83  4.869065198328E-01  4.404070531622E-01  3.048178032491E-01
C84 -4.869065198328E-01 -5.959294683778E-02  1.951821967509E-01
H85 -4.769282339583E-01 -3.936264006578E-01 -1.539505116420E-01
H86  4.769282339583E-01  1.063735993422E-01 -3.460494883580E-01
H87  4.769282339583E-01  3.936264006578E-01  1.539505116420E-01
H88 -4.769282339583E-01 -1.063735993422E-01  3.460494883580E-01


#===END

data_OPT_STEP_60

_symmetry_space_group_name_H-M 'P 1'
_cell_length_a     18.04491363
_cell_length_b      7.93289592
_cell_length_c      6.67189325
_cell_angle_alpha   90.000000
_cell_angle_beta   90.286799
_cell_angle_gamma   90.000000

loop_
_atom_site_label
_atom_site_fract_x
_atom_site_fract_y
_atom_site_fract_z
C1  1.619562726457E-01 -3.865800044702E-01  4.726694632248E-01
C2 -1.619562726457E-01  1.134199955298E-01  2.733053677517E-02
C3 -1.619562726457E-01  3.865800044702E-01 -4.726694632248E-01
C4  1.619562726457E-01 -1.134199955298E-01 -2.733053677517E-02
H5  1.766391438407E-01 -2.926905407140E-01 -4.161637183975E-01
H6 -1.766391438407E-01  2.073094592860E-01 -8.383628160252E-02
H7 -1.766391438407E-01  2.926905407140E-01  4.161637183975E-01
H8  1.766391438407E-01 -2.073094592860E-01  8.383628160252E-02
C9  8.961972100437E-02 -3.917554976046E-01  4.007896044544E-01
C10 -8.961972100437E-02  1.082445023954E-01  9.921039554556E-02
C11 -8.961972100437E-02  3.917554976046E-01 -4.007896044544E-01
C12  8.961972100437E-02 -1.082445023954E-01 -9.921039554556E-02
H13  4.913907329489E-02 -3.043422740641E-01  4.599464304555E-01
H14 -4.913907329489E-02  1.956577259359E-01  4.005356954450E-02
H15 -4.913907329489E-02  3.043422740641E-01 -4.599464304555E-01
H16  4.913907329489E-02 -1.956577259359E-01 -4.005356954450E-02
C17  6.923235712558E-02  4.914123433169E-01  2.550751777548E-01
C18 -6.923235712558E-02 -8.587656683087E-03  2.449248222452E-01
C19 -6.923235712558E-02 -4.914123433169E-01 -2.550751777548E-01
C20  6.923235712558E-02  8.587656683087E-03 -2.449248222452E-01
H21  1.256152537770E-02  4.868758526345E-01  2.007245119395E-01
H22 -1.256152537770E-02 -1.312414736548E-02  2.992754880605E-01
H23 -1.256152537770E-02 -4.868758526345E-01 -2.007245119395E-01
H24  1.256152537770E-02  1.312414736548E-02 -2.992754880605E-01
C25  1.220686098792E-01  3.796357768731E-01  1.819220861465E-01
C26 -1.220686098792E-01 -1.203642231269E-01  3.180779138535E-01
C27 -1.220686098792E-01 -3.796357768731E-01 -1.819220861465E-01
C28  1.220686098792E-01  1.203642231269E-01 -3.180779138535E-01
H29  1.071790710783E-01  2.868688977507E-01  6.957993637075E-02
H30 -1.071790710783E-01 -2.131311022493E-01  4.304200636292E-01
H31 -1.071790710783E-01 -2.868688977507E-01 -6.957993637075E-02
H32  1.071790710783E-01  2.131311022493E-01 -4.304200636292E-01
C33  1.943249339900E-01  3.843331955468E-01  2.545851428276E-01
C34 -1.943249339900E-01 -1.156668044532E-01  2.454148571724E-01
C35 -1.943249339900E-01 -3.843331955468E-01 -2.545851428276E-01
C36  1.943249339900E-01  1.156668044532E-01 -2.454148571724E-01
H37  2.341242759089E-01  2.932661567484E-01  2.000386488548E-01
H38 -2.341242759089E-01 -2.067338432516E-01  2.999613511452E-01
H39 -2.341242759089E-01 -2.932661567484E-01 -2.000386488548E-01
H40  2.341242759089E-01  2.067338432516E-01 -2.999613511452E-01
C41  2.158067434544E-01 -4.984899937762E-01  4.009276143776E-01
C42 -2.158067434544E-01  1.510006223769E-03  9.907238562242E-02
C43 -2.158067434544E-01  4.984899937762E-01 -4.009276143776E-01
C44  2.158067434544E-01 -1.510006223770E-03 -9.907238562242E-02
C45  2.930089299215E-01 -4.913858498960E-01  4.771323737990E-01
C46 -2.930089299215E-01  8.614150103962E-03  2.286762620103E-02
C47 -2.930089299215E-01  4.913858498960E-01 -4.771323737990E-01
C48  2.930089299215E-01 -8.614150103962E-03 -2.286762620103E-02
C49  3.075880283943E-01 -4.356770745420E-01 -3.223040070625E-01
C50 -3.075880283943E-01  6.432292545805E-02 -1.776959929375E-01
C51 -3.075880283943E-01  4.356770745420E-01  3.223040070625E-01
C52  3.075880283943E-01 -6.432292545805E-02  1.776959929375E-01
H53  2.614402075552E-01 -4.068776571879E-01 -2.249718072397E-01
H54 -2.614402075552E-01  9.312234281213E-02 -2.750281927603E-01
H55 -2.614402075552E-01  4.068776571879E-01  2.249718072397E-01
H56  2.614402075552E-01 -9.312234281213E-02  2.750281927603E-01
C57  3.780411291889E-01 -4.198547675866E-01 -2.508443418632E-01
C58 -3.780411291889E-01  8.014523241335E-02 -2.491556581368E-01
C59 -3.780411291889E-01  4.198547675866E-01  2.508443418632E-01
C60  3.780411291889E-01 -8.014523241335E-02  2.491556581368E-01
H61  3.876009317437E-01 -3.757874291495E-01 -9.911271953124E-02
H62 -3.876009317437E-01  1.242125708505E-01 -4.008872804688E-01
H63 -3.876009317437E-01  3.757874291495E-01  9.911271953124E-02
H64  3.876009317437E-01 -1.242125708505E-01  4.008872804688E-01
C65  4.403298397822E-01 -4.592789431273E-01 -3.727846090886E-01
C66 -4.403298397822E-01  4.072105687274E-02 -1.272153909114E-01
C67 -4.403298397822E-01  4.592789431273E-01  3.727846090886E-01
C68  4.403298397822E-01 -4.072105687274E-02  1.272153909114E-01
C69  4.266160369852E-01  4.803446800451E-01  4.271069266492E-01
C70 -4.266160369852E-01 -1.965531995485E-02  7.289307335075E-02
C71 -4.266160369852E-01 -4.803446800451E-01 -4.271069266492E-01
C72  4.266160369852E-01  1.965531995485E-02 -7.289307335075E-02
C73  3.520966781561E-01  4.663791086846E-01  3.583077802445E-01
C74 -3.520966781561E-01 -3.362089131542E-02  1.416922197555E-01
C75 -3.520966781561E-01 -4.663791086846E-01 -3.583077802445E-01
C76  3.520966781561E-01  3.362089131542E-02 -1.416922197555E-01
H77  3.429836749448E-01  4.259313865011E-01  2.049054978358E-01
H78 -3.429836749448E-01 -7.406861349889E-02  2.950945021642E-01
H79 -3.429836749448E-01 -4.259313865011E-01 -2.049054978358E-01
H80  3.429836749448E-01  7.406861349889E-02 -2.950945021642E-01
C81 -4.868849449339E-01 -4.406770816744E-01 -3.050682836297E-01
C82  4.868849449339E-01  5.932291832558E-02 -1.949317163703E-01
C83  4.868849449339E-01  4.406770816744E-01  3.050682836297E-01
C84 -4.868849449339E-01 -5.932291832558E-02  1.949317163703E-01
H85 -4.768906089359E-01 -3.941004708307E-01 -1.543952708315E-01
H86  4.768906089359E-01  1.058995291693E-01 -3.456047291685E-01
H87  4.768906089359E-01  3.941004708307E-01  1.543952708315E-01
H88 -4.768906089359E-01 -1.058995291693E-01  3.456047291685E-01


#===END

data_OPT_STEP_61

_symmetry_space_group_name_H-M 'P 1'
_cell_length_a     18.04080696
_cell_length_b      7.91840431
_cell_length_c      6.68016889
_cell_angle_alpha   90.000000
_cell_angle_beta   90.389308
_cell_angle_gamma   90.000000

loop_
_atom_site_label
_atom_site_fract_x
_atom_site_fract_y
_atom_site_fract_z
C1  1.618319600942E-01 -3.865970192160E-01  4.722975073686E-01
C2 -1.618319600942E-01  1.134029807840E-01  2.770249263140E-02
C3 -1.618319600942E-01  3.865970192160E-01 -4.722975073686E-01
C4  1.618319600942E-01 -1.134029807840E-01 -2.770249263140E-02
H5  1.765403327817E-01 -2.926262868494E-01 -4.165211027253E-01
H6 -1.765403327817E-01  2.073737131506E-01 -8.347889727471E-02
H7 -1.765403327817E-01  2.926262868494E-01  4.165211027253E-01
H8  1.765403327817E-01 -2.073737131506E-01  8.347889727471E-02
C9  8.943616140788E-02 -3.918726641894E-01  4.004626117700E-01
C10 -8.943616140788E-02  1.081273358106E-01  9.953738823003E-02
C11 -8.943616140788E-02  3.918726641894E-01 -4.004626117700E-01
C12  8.943616140788E-02 -1.081273358106E-01 -9.953738823003E-02
H13  4.893050024042E-02 -3.045190391113E-01  4.597341901037E-01
H14 -4.893050024042E-02  1.954809608887E-01  4.026580989627E-02
H15 -4.893050024042E-02  3.045190391113E-01 -4.597341901037E-01
H16  4.893050024042E-02 -1.954809608887E-01 -4.026580989627E-02
C17  6.900823361862E-02  4.912251460414E-01  2.547077412194E-01
C18 -6.900823361862E-02 -8.774853958639E-03  2.452922587806E-01
C19 -6.900823361862E-02 -4.912251460414E-01 -2.547077412194E-01
C20  6.900823361862E-02  8.774853958639E-03 -2.452922587806E-01
H21  1.228304337752E-02  4.865792684112E-01  2.004459926233E-01
H22 -1.228304337752E-02 -1.342073158879E-02  2.995540073767E-01
H23 -1.228304337752E-02 -4.865792684112E-01 -2.004459926233E-01
H24  1.228304337752E-02  1.342073158879E-02 -2.995540073767E-01
C25  1.218687178340E-01  3.794731562399E-01  1.814632465706E-01
C26 -1.218687178340E-01 -1.205268437601E-01  3.185367534294E-01
C27 -1.218687178340E-01 -3.794731562399E-01 -1.814632465706E-01
C28  1.218687178340E-01  1.205268437601E-01 -3.185367534294E-01
H29  1.069597042676E-01  2.866247136819E-01  6.910056905547E-02
H30 -1.069597042676E-01 -2.133752863181E-01  4.308994309445E-01
H31 -1.069597042676E-01 -2.866247136819E-01 -6.910056905547E-02
H32  1.069597042676E-01  2.133752863181E-01 -4.308994309445E-01
C33  1.941807375478E-01  3.842458367582E-01  2.541057390207E-01
C34 -1.941807375478E-01 -1.157541632418E-01  2.458942609793E-01
C35 -1.941807375478E-01 -3.842458367582E-01 -2.541057390207E-01
C36  1.941807375478E-01  1.157541632418E-01 -2.458942609793E-01
H37  2.340002136962E-01  2.931619906172E-01  1.995058682063E-01
H38 -2.340002136962E-01 -2.068380093828E-01  3.004941317937E-01
H39 -2.340002136962E-01 -2.931619906172E-01 -1.995058682063E-01
H40  2.340002136962E-01  2.068380093828E-01 -3.004941317937E-01
C41  2.157002192524E-01 -4.985198301868E-01  4.005068997026E-01
C42 -2.157002192524E-01  1.480169813247E-03  9.949310029740E-02
C43 -2.157002192524E-01  4.985198301868E-01 -4.005068997026E-01
C44  2.157002192524E-01 -1.480169813248E-03 -9.949310029740E-02
C45  2.929527771062E-01 -4.913971813176E-01  4.767442952889E-01
C46 -2.929527771062E-01  8.602818682405E-03  2.325570471108E-02
C47 -2.929527771062E-01  4.913971813176E-01 -4.767442952889E-01
C48  2.929527771062E-01 -8.602818682405E-03 -2.325570471108E-02
C49  3.076058128966E-01 -4.358287869302E-01 -3.228124097061E-01
C50 -3.076058128966E-01  6.417121306979E-02 -1.771875902939E-01
C51 -3.076058128966E-01  4.358287869302E-01  3.228124097061E-01
C52  3.076058128966E-01 -6.417121306979E-02  1.771875902939E-01
H53  2.614832693057E-01 -4.070882095272E-01 -2.256580920218E-01
H54 -2.614832693057E-01  9.291179047282E-02 -2.743419079782E-01
H55 -2.614832693057E-01  4.070882095272E-01  2.256580920218E-01
H56  2.614832693057E-01 -9.291179047282E-02  2.743419079782E-01
C57  3.781013567500E-01 -4.200746766184E-01 -2.512504059631E-01
C58 -3.781013567500E-01  7.992532338157E-02 -2.487495940369E-01
C59 -3.781013567500E-01  4.200746766184E-01  2.512504059631E-01
C60  3.781013567500E-01 -7.992532338157E-02  2.487495940369E-01
H61  3.877220465712E-01 -3.761091073997E-01 -9.960986064389E-02
H62 -3.877220465712E-01  1.238908926003E-01 -4.003901393561E-01
H63 -3.877220465712E-01  3.761091073997E-01  9.960986064389E-02
H64  3.877220465712E-01 -1.238908926003E-01  4.003901393561E-01
C65  4.403620734376E-01 -4.594069767692E-01 -3.729726334541E-01
C66 -4.403620734376E-01  4.059302323085E-02 -1.270273665459E-01
C67 -4.403620734376E-01  4.594069767692E-01  3.729726334541E-01
C68  4.403620734376E-01 -4.059302323085E-02  1.270273665459E-01
C69  4.265736918471E-01  4.804023316990E-01  4.270138888895E-01
C70 -4.265736918471E-01 -1.959766830103E-02  7.298611111047E-02
C71 -4.265736918471E-01 -4.804023316990E-01 -4.270138888895E-01
C72  4.265736918471E-01  1.959766830103E-02 -7.298611111047E-02
C73  3.520136413940E-01  4.664697412955E-01  3.581149417370E-01
C74 -3.520136413940E-01 -3.353025870450E-02  1.418850582630E-01
C75 -3.520136413940E-01 -4.664697412955E-01 -3.581149417370E-01
C76  3.520136413940E-01  3.353025870450E-02 -1.418850582630E-01
H77  3.428410676433E-01  4.261560558058E-01  2.048130749710E-01
H78 -3.428410676433E-01 -7.384394419422E-02  2.951869250290E-01
H79 -3.428410676433E-01 -4.261560558058E-01 -2.048130749710E-01
H80  3.428410676433E-01  7.384394419422E-02 -2.951869250290E-01
C81 -4.868093924998E-01 -4.408572322582E-01 -3.051672745912E-01
C82  4.868093924998E-01  5.914276774181E-02 -1.948327254088E-01
C83  4.868093924998E-01  4.408572322582E-01  3.051672745912E-01
C84 -4.868093924998E-01 -5.914276774181E-02  1.948327254088E-01
H85 -4.767504053384E-01 -3.943931023602E-01 -1.545736663128E-01
H86  4.767504053384E-01  1.056068976398E-01 -3.454263336872E-01
H87  4.767504053384E-01  3.943931023602E-01  1.545736663128E-01
H88 -4.767504053384E-01 -1.056068976398E-01  3.454263336872E-01


#===END

data_OPT_STEP_62

_symmetry_space_group_name_H-M 'P 1'
_cell_length_a     18.04138714
_cell_length_b      7.91306216
_cell_length_c      6.68130186
_cell_angle_alpha   90.000000
_cell_angle_beta   90.448646
_cell_angle_gamma   90.000000

loop_
_atom_site_label
_atom_site_fract_x
_atom_site_fract_y
_atom_site_fract_z
C1  1.618195293347E-01 -3.866035889677E-01  4.721119022969E-01
C2 -1.618195293347E-01  1.133964110323E-01  2.788809770313E-02
C3 -1.618195293347E-01  3.866035889677E-01 -4.721119022969E-01
C4  1.618195293347E-01 -1.133964110323E-01 -2.788809770313E-02
H5  1.765460068993E-01 -2.925384432230E-01 -4.167433529104E-01
H6 -1.765460068993E-01  2.074615567770E-01 -8.325664708956E-02
H7 -1.765460068993E-01  2.925384432230E-01  4.167433529104E-01
H8  1.765460068993E-01 -2.074615567770E-01  8.325664708956E-02
C9  8.939936161520E-02 -3.919645118333E-01  4.002757670170E-01
C10 -8.939936161520E-02  1.080354881667E-01  9.972423298295E-02
C11 -8.939936161520E-02  3.919645118333E-01 -4.002757670170E-01
C12  8.939936161520E-02 -1.080354881667E-01 -9.972423298295E-02
H13  4.888474360767E-02 -3.046392432213E-01  4.595505356692E-01
H14 -4.888474360767E-02  1.953607567787E-01  4.044946433083E-02
H15 -4.888474360767E-02  3.046392432213E-01 -4.595505356692E-01
H16  4.888474360767E-02 -1.953607567787E-01 -4.044946433083E-02
C17  6.894128098264E-02  4.910659583651E-01  2.544990290435E-01
C18 -6.894128098264E-02 -8.934041634927E-03  2.455009709565E-01
C19 -6.894128098264E-02 -4.910659583651E-01 -2.544990290435E-01
C20  6.894128098264E-02  8.934041634927E-03 -2.455009709565E-01
H21  1.218905039068E-02  4.863426130661E-01  2.002832179308E-01
H22 -1.218905039068E-02 -1.365738693388E-02  2.997167820692E-01
H23 -1.218905039068E-02 -4.863426130661E-01 -2.002832179308E-01
H24  1.218905039068E-02  1.365738693388E-02 -2.997167820692E-01
C25  1.217993334681E-01  3.793202368268E-01  1.812343471025E-01
C26 -1.217993334681E-01 -1.206797631732E-01  3.187656528975E-01
C27 -1.217993334681E-01 -3.793202368268E-01 -1.812343471025E-01
C28  1.217993334681E-01  1.206797631732E-01 -3.187656528975E-01
H29  1.068856273696E-01  2.863905408613E-01  6.885634172911E-02
H30 -1.068856273696E-01 -2.136094591387E-01  4.311436582709E-01
H31 -1.068856273696E-01 -2.863905408613E-01 -6.885634172911E-02
H32  1.068856273696E-01  2.136094591387E-01 -4.311436582709E-01
C33  1.941348058373E-01  3.841613817314E-01  2.538958967273E-01
C34 -1.941348058373E-01 -1.158386182686E-01  2.461041032727E-01
C35 -1.941348058373E-01 -3.841613817314E-01 -2.538958967273E-01
C36  1.941348058373E-01  1.158386182686E-01 -2.461041032727E-01
H37  2.339535674828E-01  2.930554807003E-01  1.992926605311E-01
H38 -2.339535674828E-01 -2.069445192997E-01  3.007073394689E-01
H39 -2.339535674828E-01 -2.930554807003E-01 -1.992926605311E-01
H40  2.339535674828E-01  2.069445192997E-01 -3.007073394689E-01
C41  2.156822434349E-01 -4.985424809031E-01  4.003285518944E-01
C42 -2.156822434349E-01  1.457519096897E-03  9.967144810560E-02
C43 -2.156822434349E-01  4.985424809031E-01 -4.003285518944E-01
C44  2.156822434349E-01 -1.457519096897E-03 -9.967144810560E-02
C45  2.929567633764E-01 -4.913785448046E-01  4.765883049095E-01
C46 -2.929567633764E-01  8.621455195444E-03  2.341169509049E-02
C47 -2.929567633764E-01  4.913785448046E-01 -4.765883049095E-01
C48  2.929567633764E-01 -8.621455195444E-03 -2.341169509049E-02
C49  3.076608460940E-01 -4.358406174568E-01 -3.229556574718E-01
C50 -3.076608460940E-01  6.415938254320E-02 -1.770443425282E-01
C51 -3.076608460940E-01  4.358406174568E-01  3.229556574718E-01
C52  3.076608460940E-01 -6.415938254320E-02  1.770443425282E-01
H53  2.615616916398E-01 -4.071054047522E-01 -2.258602741720E-01
H54 -2.615616916398E-01  9.289459524778E-02 -2.741397258280E-01
H55 -2.615616916398E-01  4.071054047522E-01  2.258602741720E-01
H56  2.615616916398E-01 -9.289459524778E-02  2.741397258280E-01
C57  3.781726457650E-01 -4.201150111958E-01 -2.513237318567E-01
C58 -3.781726457650E-01  7.988498880415E-02 -2.486762681433E-01
C59 -3.781726457650E-01  4.201150111958E-01  2.513237318567E-01
C60  3.781726457650E-01 -7.988498880415E-02  2.486762681433E-01
H61  3.878440513211E-01 -3.761481561973E-01 -9.968838542087E-02
H62 -3.878440513211E-01  1.238518438027E-01 -4.003116145791E-01
H63 -3.878440513211E-01  3.761481561973E-01  9.968838542087E-02
H64  3.878440513211E-01 -1.238518438027E-01  4.003116145791E-01
C65  4.403987828792E-01 -4.594386476472E-01 -3.729949152495E-01
C66 -4.403987828792E-01  4.056135235281E-02 -1.270050847505E-01
C67 -4.403987828792E-01  4.594386476472E-01  3.729949152495E-01
C68  4.403987828792E-01 -4.056135235281E-02  1.270050847505E-01
C69  4.265580778099E-01  4.804503749894E-01  4.269600962232E-01
C70 -4.265580778099E-01 -1.954962501064E-02  7.303990377676E-02
C71 -4.265580778099E-01 -4.804503749894E-01 -4.269600962232E-01
C72  4.265580778099E-01  1.954962501064E-02 -7.303990377676E-02
C73  3.519838236629E-01  4.665297472666E-01  3.579942370824E-01
C74 -3.519838236629E-01 -3.347025273344E-02  1.420057629176E-01
C75 -3.519838236629E-01 -4.665297472666E-01 -3.579942370824E-01
C76  3.519838236629E-01  3.347025273344E-02 -1.420057629176E-01
H77  3.427730408028E-01  4.262965434976E-01  2.046771665044E-01
H78 -3.427730408028E-01 -7.370345650237E-02  2.953228334956E-01
H79 -3.427730408028E-01 -4.262965434976E-01 -2.046771665044E-01
H80  3.427730408028E-01  7.370345650237E-02 -2.953228334956E-01
C81 -4.867536245371E-01 -4.409383994940E-01 -3.051417252547E-01
C82  4.867536245371E-01  5.906160050597E-02 -1.948582747453E-01
C83  4.867536245371E-01  4.409383994940E-01  3.051417252547E-01
C84 -4.867536245371E-01 -5.906160050597E-02  1.948582747453E-01
H85 -4.766452421441E-01 -3.945077097388E-01 -1.545365621332E-01
H86  4.766452421441E-01  1.054922902612E-01 -3.454634378668E-01
H87  4.766452421441E-01  3.945077097388E-01  1.545365621332E-01
H88 -4.766452421441E-01 -1.054922902612E-01  3.454634378668E-01


#===END

data_OPT_STEP_63

_symmetry_space_group_name_H-M 'P 1'
_cell_length_a     18.04250002
_cell_length_b      7.91425393
_cell_length_c      6.67979023
_cell_angle_alpha   90.000000
_cell_angle_beta   90.456754
_cell_angle_gamma   90.000000

loop_
_atom_site_label
_atom_site_fract_x
_atom_site_fract_y
_atom_site_fract_z
C1  1.618387791408E-01 -3.865979172055E-01  4.720373961381E-01
C2 -1.618387791408E-01  1.134020827945E-01  2.796260386189E-02
C3 -1.618387791408E-01  3.865979172055E-01 -4.720373961381E-01
C4  1.618387791408E-01 -1.134020827945E-01 -2.796260386189E-02
H5  1.765701237365E-01 -2.924906484864E-01 -4.168601922681E-01
H6 -1.765701237365E-01  2.075093515136E-01 -8.313980773194E-02
H7 -1.765701237365E-01  2.924906484864E-01  4.168601922681E-01
H8  1.765701237365E-01 -2.075093515136E-01  8.313980773194E-02
C9  8.941694854262E-02 -3.920031449349E-01  4.002087067781E-01
C10 -8.941694854262E-02  1.079968550651E-01  9.979129322192E-02
C11 -8.941694854262E-02  3.920031449349E-01 -4.002087067781E-01
C12  8.941694854262E-02 -1.079968550651E-01 -9.979129322192E-02
H13  4.890213444984E-02 -3.046836204239E-01  4.594505164312E-01
H14 -4.890213444984E-02  1.953163795761E-01  4.054948356883E-02
H15 -4.890213444984E-02  3.046836204239E-01 -4.594505164312E-01
H16  4.890213444984E-02 -1.953163795761E-01 -4.054948356883E-02
C17  6.895095458490E-02  4.909859243597E-01  2.544638824507E-01
C18 -6.895095458490E-02 -9.014075640322E-03  2.455361175493E-01
C19 -6.895095458490E-02 -4.909859243597E-01 -2.544638824507E-01
C20  6.895095458490E-02  9.014075640322E-03 -2.455361175493E-01
H21  1.219485815869E-02  4.862233677054E-01  2.002692472212E-01
H22 -1.219485815869E-02 -1.377663229460E-02  2.997307527788E-01
H23 -1.219485815869E-02 -4.862233677054E-01 -2.002692472212E-01
H24  1.219485815869E-02  1.377663229460E-02 -2.997307527788E-01
C25  1.218039699221E-01  3.792425167268E-01  1.812207051606E-01
C26 -1.218039699221E-01 -1.207574832732E-01  3.187792948394E-01
C27 -1.218039699221E-01 -3.792425167268E-01 -1.812207051606E-01
C28  1.218039699221E-01  1.207574832732E-01 -3.187792948394E-01
H29  1.068911984426E-01  2.862750546148E-01  6.886202635305E-02
H30 -1.068911984426E-01 -2.137249453852E-01  4.311379736470E-01
H31 -1.068911984426E-01 -2.862750546148E-01 -6.886202635305E-02
H32  1.068911984426E-01  2.137249453852E-01 -4.311379736470E-01
C33  1.941418817773E-01  3.841254422830E-01  2.538774041298E-01
C34 -1.941418817773E-01 -1.158745577170E-01  2.461225958702E-01
C35 -1.941418817773E-01 -3.841254422830E-01 -2.538774041298E-01
C36  1.941418817773E-01  1.158745577170E-01 -2.461225958702E-01
H37  2.339567937480E-01  2.930162931564E-01  1.992979459908E-01
H38 -2.339567937480E-01 -2.069837068436E-01  3.007020540092E-01
H39 -2.339567937480E-01 -2.930162931564E-01 -1.992979459908E-01
H40  2.339567937480E-01  2.069837068436E-01 -3.007020540092E-01
C41  2.156954378623E-01 -4.985417984141E-01  4.002850100703E-01
C42 -2.156954378623E-01  1.458201585922E-03  9.971498992974E-02
C43 -2.156954378623E-01  4.985417984141E-01 -4.002850100703E-01
C44  2.156954378623E-01 -1.458201585922E-03 -9.971498992974E-02
C45  2.929700093097E-01 -4.913487148132E-01  4.765509922290E-01
C46 -2.929700093097E-01  8.651285186819E-03  2.344900777104E-02
C47 -2.929700093097E-01  4.913487148132E-01 -4.765509922290E-01
C48  2.929700093097E-01 -8.651285186819E-03 -2.344900777104E-02
C49  3.076801928191E-01 -4.357932187774E-01 -3.229570131861E-01
C50 -3.076801928191E-01  6.420678122261E-02 -1.770429868139E-01
C51 -3.076801928191E-01  4.357932187774E-01  3.229570131861E-01
C52  3.076801928191E-01 -6.420678122261E-02  1.770429868139E-01
H53  2.615850624676E-01 -4.070456638119E-01 -2.258598336561E-01
H54 -2.615850624676E-01  9.295433618814E-02 -2.741401663439E-01
H55 -2.615850624676E-01  4.070456638119E-01  2.258598336561E-01
H56  2.615850624676E-01 -9.295433618814E-02  2.741401663439E-01
C57  3.781901053371E-01 -4.200709601627E-01 -2.512990810073E-01
C58 -3.781901053371E-01  7.992903983729E-02 -2.487009189927E-01
C59 -3.781901053371E-01  4.200709601627E-01  2.512990810073E-01
C60  3.781901053371E-01 -7.992903983729E-02  2.487009189927E-01
H61  3.878730246129E-01 -3.760793052240E-01 -9.964192052246E-02
H62 -3.878730246129E-01  1.239206947760E-01 -4.003580794775E-01
H63 -3.878730246129E-01  3.760793052240E-01  9.964192052246E-02
H64  3.878730246129E-01 -1.239206947760E-01  4.003580794775E-01
C65  4.404074169249E-01 -4.594189962905E-01 -3.729804579636E-01
C66 -4.404074169249E-01  4.058100370949E-02 -1.270195420364E-01
C67 -4.404074169249E-01  4.594189962905E-01  3.729804579636E-01
C68  4.404074169249E-01 -4.058100370949E-02  1.270195420364E-01
C69  4.265601700918E-01  4.804721935226E-01  4.269351031062E-01
C70 -4.265601700918E-01 -1.952780647737E-02  7.306489689382E-02
C71 -4.265601700918E-01 -4.804721935226E-01 -4.269351031062E-01
C72  4.265601700918E-01  1.952780647737E-02 -7.306489689382E-02
C73  3.519882523772E-01  4.665572774530E-01  3.579393654625E-01
C74 -3.519882523772E-01 -3.344272254697E-02  1.420606345375E-01
C75 -3.519882523772E-01 -4.665572774530E-01 -3.579393654625E-01
C76  3.519882523772E-01  3.344272254697E-02 -1.420606345375E-01
H77  3.427739098414E-01  4.263409727802E-01  2.045848530177E-01
H78 -3.427739098414E-01 -7.365902721979E-02  2.954151469823E-01
H79 -3.427739098414E-01 -4.263409727802E-01 -2.045848530177E-01
H80  3.427739098414E-01  7.365902721979E-02 -2.954151469823E-01
C81 -4.867455984274E-01 -4.409430642597E-01 -3.051046143845E-01
C82  4.867455984274E-01  5.905693574032E-02 -1.948953856155E-01
C83  4.867455984274E-01  4.409430642597E-01  3.051046143845E-01
C84 -4.867455984274E-01 -5.905693574032E-02  1.948953856155E-01
H85 -4.766285244903E-01 -3.945035613133E-01 -1.544720829808E-01
H86  4.766285244903E-01  1.054964386867E-01 -3.455279170192E-01
H87  4.766285244903E-01  3.945035613133E-01  1.544720829808E-01
H88 -4.766285244903E-01 -1.054964386867E-01  3.455279170192E-01


#===END

data_OPT_STEP_64

_symmetry_space_group_name_H-M 'P 1'
_cell_length_a     18.04264157
_cell_length_b      7.91456805
_cell_length_c      6.67951949
_cell_angle_alpha   90.000000
_cell_angle_beta   90.455580
_cell_angle_gamma   90.000000

loop_
_atom_site_label
_atom_site_fract_x
_atom_site_fract_y
_atom_site_fract_z
C1  1.618438455983E-01 -3.865875672858E-01  4.720097722722E-01
C2 -1.618438455983E-01  1.134124327142E-01  2.799022772783E-02
C3 -1.618438455983E-01  3.865875672858E-01 -4.720097722722E-01
C4  1.618438455983E-01 -1.134124327142E-01 -2.799022772783E-02
H5  1.765751694444E-01 -2.924627090589E-01 -4.169084564160E-01
H6 -1.765751694444E-01  2.075372909411E-01 -8.309154358405E-02
H7 -1.765751694444E-01  2.924627090589E-01  4.169084564160E-01
H8  1.765751694444E-01 -2.075372909411E-01  8.309154358405E-02
C9  8.942294078949E-02 -3.920016506613E-01  4.001808909865E-01
C10 -8.942294078949E-02  1.079983493387E-01  9.981910901353E-02
C11 -8.942294078949E-02  3.920016506613E-01 -4.001808909865E-01
C12  8.942294078949E-02 -1.079983493387E-01 -9.981910901353E-02
H13  4.890819877417E-02 -3.046735745599E-01  4.594001315807E-01
H14 -4.890819877417E-02  1.953264254401E-01  4.059986841928E-02
H15 -4.890819877417E-02  3.046735745599E-01 -4.594001315807E-01
H16  4.890819877417E-02 -1.953264254401E-01 -4.059986841928E-02
C17  6.895627179357E-02  4.909673567706E-01  2.544574312863E-01
C18 -6.895627179357E-02 -9.032643229426E-03  2.455425687137E-01
C19 -6.895627179357E-02 -4.909673567706E-01 -2.544574312863E-01
C20  6.895627179357E-02  9.032643229426E-03 -2.455425687137E-01
H21  1.220012333561E-02  4.861958038383E-01  2.002686646233E-01
H22 -1.220012333561E-02 -1.380419616171E-02  2.997313353767E-01
H23 -1.220012333561E-02 -4.861958038383E-01 -2.002686646233E-01
H24  1.220012333561E-02  1.380419616171E-02 -2.997313353767E-01
C25  1.218080326480E-01  3.792136921720E-01  1.812340245140E-01
C26 -1.218080326480E-01 -1.207863078280E-01  3.187659754860E-01
C27 -1.218080326480E-01 -3.792136921720E-01 -1.812340245140E-01
C28  1.218080326480E-01  1.207863078280E-01 -3.187659754860E-01
H29  1.068966659900E-01  2.862291034572E-01  6.889050287080E-02
H30 -1.068966659900E-01 -2.137708965428E-01  4.311094971292E-01
H31 -1.068966659900E-01 -2.862291034572E-01 -6.889050287080E-02
H32  1.068966659900E-01  2.137708965428E-01 -4.311094971292E-01
C33  1.941456150098E-01  3.841068477399E-01  2.538892082160E-01
C34 -1.941456150098E-01 -1.158931522601E-01  2.461107917840E-01
C35 -1.941456150098E-01 -3.841068477399E-01 -2.538892082160E-01
C36  1.941456150098E-01  1.158931522601E-01 -2.461107917840E-01
H37  2.339595124348E-01  2.929891472282E-01  1.993264640143E-01
H38 -2.339595124348E-01 -2.070108527718E-01  3.006735359857E-01
H39 -2.339595124348E-01 -2.929891472282E-01 -1.993264640143E-01
H40  2.339595124348E-01  2.070108527718E-01 -3.006735359857E-01
C41  2.156992446397E-01 -4.985415672051E-01  4.002772275898E-01
C42 -2.156992446397E-01  1.458432794890E-03  9.972277241022E-02
C43 -2.156992446397E-01  4.985415672051E-01 -4.002772275898E-01
C44  2.156992446397E-01 -1.458432794890E-03 -9.972277241022E-02
C45  2.929727273498E-01 -4.913433012214E-01  4.765446463843E-01
C46 -2.929727273498E-01  8.656698778605E-03  2.345535361568E-02
C47 -2.929727273498E-01  4.913433012214E-01 -4.765446463843E-01
C48  2.929727273498E-01 -8.656698778606E-03 -2.345535361568E-02
C49  3.076804059483E-01 -4.357883181089E-01 -3.229544355399E-01
C50 -3.076804059483E-01  6.421168189110E-02 -1.770455644601E-01
C51 -3.076804059483E-01  4.357883181089E-01  3.229544355399E-01
C52  3.076804059483E-01 -6.421168189110E-02  1.770455644601E-01
H53  2.615835037016E-01 -4.070399260900E-01 -2.258579492860E-01
H54 -2.615835037016E-01  9.296007391000E-02 -2.741420507140E-01
H55 -2.615835037016E-01  4.070399260900E-01  2.258579492860E-01
H56  2.615835037016E-01 -9.296007391000E-02  2.741420507140E-01
C57  3.781887766423E-01 -4.200677631502E-01 -2.512910662731E-01
C58 -3.781887766423E-01  7.993223684975E-02 -2.487089337269E-01
C59 -3.781887766423E-01  4.200677631502E-01  2.512910662731E-01
C60  3.781887766423E-01 -7.993223684975E-02  2.487089337269E-01
H61  3.878719078058E-01 -3.760709782725E-01 -9.963050557186E-02
H62 -3.878719078058E-01  1.239290217275E-01 -4.003694944281E-01
H63 -3.878719078058E-01  3.760709782725E-01  9.963050557186E-02
H64  3.878719078058E-01 -1.239290217275E-01  4.003694944281E-01
C65  4.404065804421E-01 -4.594176869355E-01 -3.729763616820E-01
C66 -4.404065804421E-01  4.058231306450E-02 -1.270236383180E-01
C67 -4.404065804421E-01  4.594176869355E-01  3.729763616820E-01
C68  4.404065804421E-01 -4.058231306450E-02  1.270236383180E-01
C69  4.265617303091E-01  4.804780510719E-01  4.269290193634E-01
C70 -4.265617303091E-01 -1.952194892807E-02  7.307098063659E-02
C71 -4.265617303091E-01 -4.804780510719E-01 -4.269290193634E-01
C72  4.265617303091E-01  1.952194892807E-02 -7.307098063659E-02
C73  3.519911893133E-01  4.665662410326E-01  3.579271838933E-01
C74 -3.519911893133E-01 -3.343375896740E-02  1.420728161067E-01
C75 -3.519911893133E-01 -4.665662410326E-01 -3.579271838933E-01
C76  3.519911893133E-01  3.343375896740E-02 -1.420728161067E-01
H77  3.427796424515E-01  4.263600619427E-01  2.045629379570E-01
H78 -3.427796424515E-01 -7.363993805734E-02  2.954370620430E-01
H79 -3.427796424515E-01 -4.263600619427E-01 -2.045629379570E-01
H80  3.427796424515E-01  7.363993805734E-02 -2.954370620430E-01
C81 -4.867476276768E-01 -4.409481973043E-01 -3.050947303168E-01
C82  4.867476276768E-01  5.905180269569E-02 -1.949052696832E-01
C83  4.867476276768E-01  4.409481973043E-01  3.050947303168E-01
C84 -4.867476276768E-01 -5.905180269569E-02  1.949052696832E-01
H85 -4.766320733171E-01 -3.945096347822E-01 -1.544558462634E-01
H86  4.766320733171E-01  1.054903652178E-01 -3.455441537366E-01
H87  4.766320733171E-01  3.945096347822E-01  1.544558462634E-01
H88 -4.766320733171E-01 -1.054903652178E-01  3.455441537366E-01


#===END

data_OPT_STEP_65

_symmetry_space_group_name_H-M 'P 1'
_cell_length_a     18.04263025
_cell_length_b      7.91463539
_cell_length_c      6.67947934
_cell_angle_alpha   90.000000
_cell_angle_beta   90.455294
_cell_angle_gamma   90.000000

loop_
_atom_site_label
_atom_site_fract_x
_atom_site_fract_y
_atom_site_fract_z
C1  1.618441643717E-01 -3.865849732456E-01  4.720000004753E-01
C2 -1.618441643717E-01  1.134150267544E-01  2.799999952470E-02
C3 -1.618441643717E-01  3.865849732456E-01 -4.720000004753E-01
C4  1.618441643717E-01 -1.134150267544E-01 -2.799999952470E-02
H5  1.765753615324E-01 -2.924561018373E-01 -4.169228407735E-01
H6 -1.765753615324E-01  2.075438981627E-01 -8.307715922649E-02
H7 -1.765753615324E-01  2.924561018373E-01  4.169228407735E-01
H8  1.765753615324E-01 -2.075438981627E-01  8.307715922649E-02
C9  8.942337544166E-02 -3.920013390946E-01  4.001710946965E-01
C10 -8.942337544166E-02  1.079986609054E-01  9.982890530351E-02
C11 -8.942337544166E-02  3.920013390946E-01 -4.001710946965E-01
C12  8.942337544166E-02 -1.079986609054E-01 -9.982890530351E-02
H13  4.890854125996E-02 -3.046712669086E-01  4.593848483022E-01
H14 -4.890854125996E-02  1.953287330914E-01  4.061515169778E-02
H15 -4.890854125996E-02  3.046712669086E-01 -4.593848483022E-01
H16  4.890854125996E-02 -1.953287330914E-01 -4.061515169778E-02
C17  6.895668859893E-02  4.909625245052E-01  2.544531925377E-01
C18 -6.895668859893E-02 -9.037475494795E-03  2.455468074623E-01
C19 -6.895668859893E-02 -4.909625245052E-01 -2.544531925377E-01
C20  6.895668859893E-02  9.037475494795E-03 -2.455468074623E-01
H21  1.220047944364E-02  4.861886285791E-01  2.002657778790E-01
H22 -1.220047944364E-02 -1.381137142095E-02  2.997342221210E-01
H23 -1.220047944364E-02 -4.861886285791E-01 -2.002657778790E-01
H24  1.220047944364E-02  1.381137142095E-02 -2.997342221210E-01
C25  1.218084213221E-01  3.792065702000E-01  1.812346376112E-01
C26 -1.218084213221E-01 -1.207934298000E-01  3.187653623888E-01
C27 -1.218084213221E-01 -3.792065702000E-01 -1.812346376112E-01
C28  1.218084213221E-01  1.207934298000E-01 -3.187653623888E-01
H29  1.068973783930E-01  2.862179057603E-01  6.889500706457E-02
H30 -1.068973783930E-01 -2.137820942397E-01  4.311049929354E-01
H31 -1.068973783930E-01 -2.862179057603E-01 -6.889500706457E-02
H32  1.068973783930E-01  2.137820942397E-01 -4.311049929354E-01
C33  1.941460453865E-01  3.841025293416E-01  2.538891403529E-01
C34 -1.941460453865E-01 -1.158974706584E-01  2.461108596471E-01
C35 -1.941460453865E-01 -3.841025293416E-01 -2.538891403529E-01
C36  1.941460453865E-01  1.158974706584E-01 -2.461108596471E-01
H37  2.339599007802E-01  2.929830339613E-01  1.993304440449E-01
H38 -2.339599007802E-01 -2.070169660387E-01  3.006695559551E-01
H39 -2.339599007802E-01 -2.929830339613E-01 -1.993304440449E-01
H40  2.339599007802E-01  2.070169660387E-01 -3.006695559551E-01
C41  2.156995265384E-01 -4.985412242378E-01  4.002722385265E-01
C42 -2.156995265384E-01  1.458775762238E-03  9.972776147354E-02
C43 -2.156995265384E-01  4.985412242378E-01 -4.002722385265E-01
C44  2.156995265384E-01 -1.458775762238E-03 -9.972776147354E-02
C45  2.929728170059E-01 -4.913418753135E-01  4.765405069040E-01
C46 -2.929728170059E-01  8.658124686538E-03  2.345949309604E-02
C47 -2.929728170059E-01  4.913418753135E-01 -4.765405069040E-01
C48  2.929728170059E-01 -8.658124686538E-03 -2.345949309604E-02
C49  3.076795775688E-01 -4.357886771806E-01 -3.229565914325E-01
C50 -3.076795775688E-01  6.421132281936E-02 -1.770434085675E-01
C51 -3.076795775688E-01  4.357886771806E-01  3.229565914325E-01
C52  3.076795775688E-01 -6.421132281936E-02  1.770434085675E-01
H53  2.615819468479E-01 -4.070410139825E-01 -2.258607388253E-01
H54 -2.615819468479E-01  9.295898601751E-02 -2.741392611747E-01
H55 -2.615819468479E-01  4.070410139825E-01  2.258607388253E-01
H56  2.615819468479E-01 -9.295898601751E-02  2.741392611747E-01
C57  3.781876412914E-01 -4.200691595244E-01 -2.512912611495E-01
C58 -3.781876412914E-01  7.993084047562E-02 -2.487087388505E-01
C59 -3.781876412914E-01  4.200691595244E-01  2.512912611495E-01
C60  3.781876412914E-01 -7.993084047562E-02  2.487087388505E-01
H61  3.878704724577E-01 -3.760727888141E-01 -9.962964197520E-02
H62 -3.878704724577E-01  1.239272111859E-01 -4.003703580248E-01
H63 -3.878704724577E-01  3.760727888141E-01  9.962964197520E-02
H64  3.878704724577E-01 -1.239272111859E-01  4.003703580248E-01
C65  4.404059677163E-01 -4.594184058043E-01 -3.729765911589E-01
C66 -4.404059677163E-01  4.058159419566E-02 -1.270234088411E-01
C67 -4.404059677163E-01  4.594184058043E-01  3.729765911589E-01
C68  4.404059677163E-01 -4.058159419566E-02  1.270234088411E-01
C69  4.265620253657E-01  4.804798765857E-01  4.269265976369E-01
C70 -4.265620253657E-01 -1.952012341431E-02  7.307340236307E-02
C71 -4.265620253657E-01 -4.804798765857E-01 -4.269265976369E-01
C72  4.265620253657E-01  1.952012341431E-02 -7.307340236307E-02
C73  3.519917225707E-01  4.665694799411E-01  3.579224765857E-01
C74 -3.519917225707E-01 -3.343052005888E-02  1.420775234143E-01
C75 -3.519917225707E-01 -4.665694799411E-01 -3.579224765857E-01
C76  3.519917225707E-01  3.343052005888E-02 -1.420775234143E-01
H77  3.427812485140E-01  4.263671732946E-01  2.045556634465E-01
H78 -3.427812485140E-01 -7.363282670540E-02  2.954443365535E-01
H79 -3.427812485140E-01 -4.263671732946E-01 -2.045556634465E-01
H80  3.427812485140E-01  7.363282670540E-02 -2.954443365535E-01
C81 -4.867484860839E-01 -4.409508005419E-01 -3.050925714948E-01
C82  4.867484860839E-01  5.904919945810E-02 -1.949074285052E-01
C83  4.867484860839E-01  4.409508005419E-01  3.050925714948E-01
C84 -4.867484860839E-01 -5.904919945810E-02  1.949074285052E-01
H85 -4.766336965331E-01 -3.945134149742E-01 -1.544521728079E-01
H86  4.766336965331E-01  1.054865850258E-01 -3.455478271921E-01
H87  4.766336965331E-01  3.945134149742E-01  1.544521728079E-01
H88 -4.766336965331E-01 -1.054865850258E-01  3.455478271921E-01


#===END

data_OPT_STEP_66

_symmetry_space_group_name_H-M 'P 1'
_cell_length_a     18.04263025
_cell_length_b      7.91463539
_cell_length_c      6.67947934
_cell_angle_alpha   90.000000
_cell_angle_beta   90.455294
_cell_angle_gamma   90.000000

loop_
_atom_site_label
_atom_site_fract_x
_atom_site_fract_y
_atom_site_fract_z
C1  1.618441643717E-01 -3.865849732456E-01  4.720000004753E-01
C2 -1.618441643717E-01  1.134150267544E-01  2.799999952470E-02
C3 -1.618441643717E-01  3.865849732456E-01 -4.720000004753E-01
C4  1.618441643717E-01 -1.134150267544E-01 -2.799999952470E-02
H5  1.765753615324E-01 -2.924561018373E-01 -4.169228407735E-01
H6 -1.765753615324E-01  2.075438981627E-01 -8.307715922649E-02
H7 -1.765753615324E-01  2.924561018373E-01  4.169228407735E-01
H8  1.765753615324E-01 -2.075438981627E-01  8.307715922649E-02
C9  8.942337544166E-02 -3.920013390946E-01  4.001710946965E-01
C10 -8.942337544166E-02  1.079986609054E-01  9.982890530351E-02
C11 -8.942337544166E-02  3.920013390946E-01 -4.001710946965E-01
C12  8.942337544166E-02 -1.079986609054E-01 -9.982890530351E-02
H13  4.890854125996E-02 -3.046712669086E-01  4.593848483022E-01
H14 -4.890854125996E-02  1.953287330914E-01  4.061515169778E-02
H15 -4.890854125996E-02  3.046712669086E-01 -4.593848483022E-01
H16  4.890854125996E-02 -1.953287330914E-01 -4.061515169778E-02
C17  6.895668859893E-02  4.909625245052E-01  2.544531925377E-01
C18 -6.895668859893E-02 -9.037475494795E-03  2.455468074623E-01
C19 -6.895668859893E-02 -4.909625245052E-01 -2.544531925377E-01
C20  6.895668859893E-02  9.037475494795E-03 -2.455468074623E-01
H21  1.220047944364E-02  4.861886285791E-01  2.002657778790E-01
H22 -1.220047944364E-02 -1.381137142095E-02  2.997342221210E-01
H23 -1.220047944364E-02 -4.861886285791E-01 -2.002657778790E-01
H24  1.220047944364E-02  1.381137142095E-02 -2.997342221210E-01
C25  1.218084213221E-01  3.792065702000E-01  1.812346376112E-01
C26 -1.218084213221E-01 -1.207934298000E-01  3.187653623888E-01
C27 -1.218084213221E-01 -3.792065702000E-01 -1.812346376112E-01
C28  1.218084213221E-01  1.207934298000E-01 -3.187653623888E-01
H29  1.068973783930E-01  2.862179057603E-01  6.889500706457E-02
H30 -1.068973783930E-01 -2.137820942397E-01  4.311049929354E-01
H31 -1.068973783930E-01 -2.862179057603E-01 -6.889500706457E-02
H32  1.068973783930E-01  2.137820942397E-01 -4.311049929354E-01
C33  1.941460453865E-01  3.841025293416E-01  2.538891403529E-01
C34 -1.941460453865E-01 -1.158974706584E-01  2.461108596471E-01
C35 -1.941460453865E-01 -3.841025293416E-01 -2.538891403529E-01
C36  1.941460453865E-01  1.158974706584E-01 -2.461108596471E-01
H37  2.339599007802E-01  2.929830339613E-01  1.993304440449E-01
H38 -2.339599007802E-01 -2.070169660387E-01  3.006695559551E-01
H39 -2.339599007802E-01 -2.929830339613E-01 -1.993304440449E-01
H40  2.339599007802E-01  2.070169660387E-01 -3.006695559551E-01
C41  2.156995265384E-01 -4.985412242378E-01  4.002722385265E-01
C42 -2.156995265384E-01  1.458775762238E-03  9.972776147354E-02
C43 -2.156995265384E-01  4.985412242378E-01 -4.002722385265E-01
C44  2.156995265384E-01 -1.458775762238E-03 -9.972776147354E-02
C45  2.929728170059E-01 -4.913418753135E-01  4.765405069040E-01
C46 -2.929728170059E-01  8.658124686538E-03  2.345949309604E-02
C47 -2.929728170059E-01  4.913418753135E-01 -4.765405069040E-01
C48  2.929728170059E-01 -8.658124686538E-03 -2.345949309604E-02
C49  3.076795775688E-01 -4.357886771806E-01 -3.229565914325E-01
C50 -3.076795775688E-01  6.421132281936E-02 -1.770434085675E-01
C51 -3.076795775688E-01  4.357886771806E-01  3.229565914325E-01
C52  3.076795775688E-01 -6.421132281936E-02  1.770434085675E-01
H53  2.615819468479E-01 -4.070410139825E-01 -2.258607388253E-01
H54 -2.615819468479E-01  9.295898601751E-02 -2.741392611747E-01
H55 -2.615819468479E-01  4.070410139825E-01  2.258607388253E-01
H56  2.615819468479E-01 -9.295898601751E-02  2.741392611747E-01
C57  3.781876412914E-01 -4.200691595244E-01 -2.512912611495E-01
C58 -3.781876412914E-01  7.993084047562E-02 -2.487087388505E-01
C59 -3.781876412914E-01  4.200691595244E-01  2.512912611495E-01
C60  3.781876412914E-01 -7.993084047562E-02  2.487087388505E-01
H61  3.878704724577E-01 -3.760727888141E-01 -9.962964197520E-02
H62 -3.878704724577E-01  1.239272111859E-01 -4.003703580248E-01
H63 -3.878704724577E-01  3.760727888141E-01  9.962964197520E-02
H64  3.878704724577E-01 -1.239272111859E-01  4.003703580248E-01
C65  4.404059677163E-01 -4.594184058043E-01 -3.729765911589E-01
C66 -4.404059677163E-01  4.058159419566E-02 -1.270234088411E-01
C67 -4.404059677163E-01  4.594184058043E-01  3.729765911589E-01
C68  4.404059677163E-01 -4.058159419566E-02  1.270234088411E-01
C69  4.265620253657E-01  4.804798765857E-01  4.269265976369E-01
C70 -4.265620253657E-01 -1.952012341431E-02  7.307340236307E-02
C71 -4.265620253657E-01 -4.804798765857E-01 -4.269265976369E-01
C72  4.265620253657E-01  1.952012341431E-02 -7.307340236307E-02
C73  3.519917225707E-01  4.665694799411E-01  3.579224765857E-01
C74 -3.519917225707E-01 -3.343052005888E-02  1.420775234143E-01
C75 -3.519917225707E-01 -4.665694799411E-01 -3.579224765857E-01
C76  3.519917225707E-01  3.343052005888E-02 -1.420775234143E-01
H77  3.427812485140E-01  4.263671732946E-01  2.045556634465E-01
H78 -3.427812485140E-01 -7.363282670540E-02  2.954443365535E-01
H79 -3.427812485140E-01 -4.263671732946E-01 -2.045556634465E-01
H80  3.427812485140E-01  7.363282670540E-02 -2.954443365535E-01
C81 -4.867484860839E-01 -4.409508005419E-01 -3.050925714948E-01
C82  4.867484860839E-01  5.904919945810E-02 -1.949074285052E-01
C83  4.867484860839E-01  4.409508005419E-01  3.050925714948E-01
C84 -4.867484860839E-01 -5.904919945810E-02  1.949074285052E-01
H85 -4.766336965331E-01 -3.945134149742E-01 -1.544521728079E-01
H86  4.766336965331E-01  1.054865850258E-01 -3.455478271921E-01
H87  4.766336965331E-01  3.945134149742E-01  1.544521728079E-01
H88 -4.766336965331E-01 -1.054865850258E-01  3.455478271921E-01


#===END
