###############################################################################
#
#                    CRYSTAL17 CIF FILE
#
###############################################################################

data_OPT_STEP_1

_symmetry_space_group_name_H-M 'P 1'
_cell_length_a      7.90000000
_cell_length_b      6.03000000
_cell_length_c     13.53000000
_cell_angle_alpha  100.300000
_cell_angle_beta  113.200000
_cell_angle_gamma   86.300000

loop_
_atom_site_label
_atom_site_fract_x
_atom_site_fract_y
_atom_site_fract_z
C1  1.194000000000E-01  3.310000000000E-02  3.890000000000E-01
C2 -1.194000000000E-01 -3.310000000000E-02 -3.890000000000E-01
C3  1.494000000000E-01  1.564000000000E-01  3.219000000000E-01
C4 -1.494000000000E-01 -1.564000000000E-01 -3.219000000000E-01
C5  8.110000000000E-02  7.240000000000E-02  2.040000000000E-01
C6 -8.110000000000E-02 -7.240000000000E-02 -2.040000000000E-01
C7  1.094000000000E-01  1.899000000000E-01  1.360000000000E-01
C8 -1.094000000000E-01 -1.899000000000E-01 -1.360000000000E-01
C9  4.670000000000E-02  1.089000000000E-01  2.110000000000E-02
C10 -4.670000000000E-02 -1.089000000000E-01 -2.110000000000E-02
C11  6.910000000000E-02  2.228000000000E-01 -5.160000000000E-02
C12 -6.910000000000E-02 -2.228000000000E-01  5.160000000000E-02
C13 -3.500000000000E-03 -1.405000000000E-01  1.637000000000E-01
C14  3.500000000000E-03  1.405000000000E-01 -1.637000000000E-01
C15 -3.780000000000E-02 -2.646000000000E-01  2.355000000000E-01
C16  3.780000000000E-02  2.646000000000E-01 -2.355000000000E-01
C17  2.670000000000E-02 -1.832000000000E-01  3.483000000000E-01
C18 -2.670000000000E-02  1.832000000000E-01 -3.483000000000E-01
H19  1.680000000000E-01  1.000000000000E-01  4.700000000000E-01
H20 -1.680000000000E-01 -1.000000000000E-01 -4.700000000000E-01
H21  2.120000000000E-01  3.170000000000E-01  3.490000000000E-01
H22 -2.120000000000E-01 -3.170000000000E-01 -3.490000000000E-01
H23  1.760000000000E-01  3.540000000000E-01  1.650000000000E-01
H24 -1.760000000000E-01 -3.540000000000E-01 -1.650000000000E-01
H25  1.340000000000E-01  3.880000000000E-01 -2.200000000000E-02
H26 -1.340000000000E-01 -3.880000000000E-01  2.200000000000E-02
H27 -9.500000000000E-02 -4.250000000000E-01  2.020000000000E-01
H28  9.500000000000E-02  4.250000000000E-01 -2.020000000000E-01
H29  1.100000000000E-02 -2.790000000000E-01  4.000000000000E-01
H30 -1.100000000000E-02  2.790000000000E-01 -4.000000000000E-01
C31 -4.572000000000E-01 -4.320000000000E-01  3.787000000000E-01
C32  4.572000000000E-01  4.320000000000E-01 -3.787000000000E-01
C33  4.799000000000E-01 -3.139000000000E-01  2.930000000000E-01
C34 -4.799000000000E-01  3.139000000000E-01 -2.930000000000E-01
C35  4.997000000000E-01 -4.136000000000E-01  1.947000000000E-01
C36 -4.997000000000E-01  4.136000000000E-01 -1.947000000000E-01
C37  4.425000000000E-01 -2.993000000000E-01  1.048000000000E-01
C38 -4.425000000000E-01  2.993000000000E-01 -1.048000000000E-01
C39  4.638000000000E-01 -3.860000000000E-01  5.200000000000E-03
C40 -4.638000000000E-01  3.860000000000E-01 -5.200000000000E-03
C41  4.052000000000E-01 -2.758000000000E-01 -8.320000000000E-02
C42 -4.052000000000E-01  2.758000000000E-01  8.320000000000E-02
C43 -4.242000000000E-01  3.649000000000E-01  1.811000000000E-01
C44  4.242000000000E-01 -3.649000000000E-01 -1.811000000000E-01
C45 -3.694000000000E-01  2.568000000000E-01  2.685000000000E-01
C46  3.694000000000E-01 -2.568000000000E-01 -2.685000000000E-01
C47 -3.852000000000E-01  3.374000000000E-01  3.645000000000E-01
C48  3.852000000000E-01 -3.374000000000E-01 -3.645000000000E-01
H49 -4.690000000000E-01 -3.500000000000E-01  4.540000000000E-01
H50  4.690000000000E-01  3.500000000000E-01 -4.540000000000E-01
H51  4.250000000000E-01 -1.480000000000E-01  3.050000000000E-01
H52 -4.250000000000E-01  1.480000000000E-01 -3.050000000000E-01
H53  3.860000000000E-01 -1.300000000000E-01  1.140000000000E-01
H54 -3.860000000000E-01  1.300000000000E-01 -1.140000000000E-01
H55  3.510000000000E-01 -1.130000000000E-01 -7.200000000000E-02
H56 -3.510000000000E-01  1.130000000000E-01  7.200000000000E-02
H57 -3.150000000000E-01  8.900000000000E-02  2.530000000000E-01
H58  3.150000000000E-01 -8.900000000000E-02 -2.530000000000E-01
H59 -3.450000000000E-01  2.460000000000E-01  4.250000000000E-01
H60  3.450000000000E-01 -2.460000000000E-01 -4.250000000000E-01


#===END

data_OPT_STEP_2

_symmetry_space_group_name_H-M 'P 1'
_cell_length_a      7.90000000
_cell_length_b      6.03000000
_cell_length_c     13.53000000
_cell_angle_alpha  100.300000
_cell_angle_beta  113.200000
_cell_angle_gamma   86.300000

loop_
_atom_site_label
_atom_site_fract_x
_atom_site_fract_y
_atom_site_fract_z
C1  1.194000000000E-01  3.310000000000E-02  3.890000000000E-01
C2 -1.194000000000E-01 -3.310000000000E-02 -3.890000000000E-01
C3  1.494000000000E-01  1.564000000000E-01  3.219000000000E-01
C4 -1.494000000000E-01 -1.564000000000E-01 -3.219000000000E-01
C5  8.110000000000E-02  7.240000000000E-02  2.040000000000E-01
C6 -8.110000000000E-02 -7.240000000000E-02 -2.040000000000E-01
C7  1.094000000000E-01  1.899000000000E-01  1.360000000000E-01
C8 -1.094000000000E-01 -1.899000000000E-01 -1.360000000000E-01
C9  4.670000000000E-02  1.089000000000E-01  2.110000000000E-02
C10 -4.670000000000E-02 -1.089000000000E-01 -2.110000000000E-02
C11  6.910000000000E-02  2.228000000000E-01 -5.160000000000E-02
C12 -6.910000000000E-02 -2.228000000000E-01  5.160000000000E-02
C13 -3.500000000000E-03 -1.405000000000E-01  1.637000000000E-01
C14  3.500000000000E-03  1.405000000000E-01 -1.637000000000E-01
C15 -3.780000000000E-02 -2.646000000000E-01  2.355000000000E-01
C16  3.780000000000E-02  2.646000000000E-01 -2.355000000000E-01
C17  2.670000000000E-02 -1.832000000000E-01  3.483000000000E-01
C18 -2.670000000000E-02  1.832000000000E-01 -3.483000000000E-01
H19  1.680000000000E-01  1.000000000000E-01  4.700000000000E-01
H20 -1.680000000000E-01 -1.000000000000E-01 -4.700000000000E-01
H21  2.120000000000E-01  3.170000000000E-01  3.490000000000E-01
H22 -2.120000000000E-01 -3.170000000000E-01 -3.490000000000E-01
H23  1.760000000000E-01  3.540000000000E-01  1.650000000000E-01
H24 -1.760000000000E-01 -3.540000000000E-01 -1.650000000000E-01
H25  1.340000000000E-01  3.880000000000E-01 -2.200000000000E-02
H26 -1.340000000000E-01 -3.880000000000E-01  2.200000000000E-02
H27 -9.500000000000E-02 -4.250000000000E-01  2.020000000000E-01
H28  9.500000000000E-02  4.250000000000E-01 -2.020000000000E-01
H29  1.100000000000E-02 -2.790000000000E-01  4.000000000000E-01
H30 -1.100000000000E-02  2.790000000000E-01 -4.000000000000E-01
C31 -4.572000000000E-01 -4.320000000000E-01  3.787000000000E-01
C32  4.572000000000E-01  4.320000000000E-01 -3.787000000000E-01
C33  4.799000000000E-01 -3.139000000000E-01  2.930000000000E-01
C34 -4.799000000000E-01  3.139000000000E-01 -2.930000000000E-01
C35  4.997000000000E-01 -4.136000000000E-01  1.947000000000E-01
C36 -4.997000000000E-01  4.136000000000E-01 -1.947000000000E-01
C37  4.425000000000E-01 -2.993000000000E-01  1.048000000000E-01
C38 -4.425000000000E-01  2.993000000000E-01 -1.048000000000E-01
C39  4.638000000000E-01 -3.860000000000E-01  5.200000000000E-03
C40 -4.638000000000E-01  3.860000000000E-01 -5.200000000000E-03
C41  4.052000000000E-01 -2.758000000000E-01 -8.320000000000E-02
C42 -4.052000000000E-01  2.758000000000E-01  8.320000000000E-02
C43 -4.242000000000E-01  3.649000000000E-01  1.811000000000E-01
C44  4.242000000000E-01 -3.649000000000E-01 -1.811000000000E-01
C45 -3.694000000000E-01  2.568000000000E-01  2.685000000000E-01
C46  3.694000000000E-01 -2.568000000000E-01 -2.685000000000E-01
C47 -3.852000000000E-01  3.374000000000E-01  3.645000000000E-01
C48  3.852000000000E-01 -3.374000000000E-01 -3.645000000000E-01
H49 -4.690000000000E-01 -3.500000000000E-01  4.540000000000E-01
H50  4.690000000000E-01  3.500000000000E-01 -4.540000000000E-01
H51  4.250000000000E-01 -1.480000000000E-01  3.050000000000E-01
H52 -4.250000000000E-01  1.480000000000E-01 -3.050000000000E-01
H53  3.860000000000E-01 -1.300000000000E-01  1.140000000000E-01
H54 -3.860000000000E-01  1.300000000000E-01 -1.140000000000E-01
H55  3.510000000000E-01 -1.130000000000E-01 -7.200000000000E-02
H56 -3.510000000000E-01  1.130000000000E-01  7.200000000000E-02
H57 -3.150000000000E-01  8.900000000000E-02  2.530000000000E-01
H58  3.150000000000E-01 -8.900000000000E-02 -2.530000000000E-01
H59 -3.450000000000E-01  2.460000000000E-01  4.250000000000E-01
H60  3.450000000000E-01 -2.460000000000E-01 -4.250000000000E-01


#===END

data_OPT_STEP_3

_symmetry_space_group_name_H-M 'P 1'
_cell_length_a      7.93763645
_cell_length_b      6.06967261
_cell_length_c     13.54051336
_cell_angle_alpha  100.387022
_cell_angle_beta  113.192907
_cell_angle_gamma   86.308418

loop_
_atom_site_label
_atom_site_fract_x
_atom_site_fract_y
_atom_site_fract_z
C1  1.195753529890E-01  3.382005271878E-02  3.885723135551E-01
C2 -1.195753529890E-01 -3.382005271878E-02 -3.885723135551E-01
C3  1.457617751399E-01  1.578509083232E-01  3.211164926987E-01
C4 -1.457617751399E-01 -1.578509083232E-01 -3.211164926987E-01
C5  8.274332846263E-02  7.206728307947E-02  2.043600521416E-01
C6 -8.274332846263E-02 -7.206728307947E-02 -2.043600521416E-01
C7  1.076452695951E-01  1.908514709099E-01  1.349793945710E-01
C8 -1.076452695951E-01 -1.908514709099E-01 -1.349793945710E-01
C9  4.527791572805E-02  1.091164341124E-01  2.076679125772E-02
C10 -4.527791572805E-02 -1.091164341124E-01 -2.076679125772E-02
C11  6.829547494341E-02  2.235574863548E-01 -5.219006227641E-02
C12 -6.829547494341E-02 -2.235574863548E-01  5.219006227641E-02
C13 -7.786524663069E-03 -1.379922030334E-01  1.636056157776E-01
C14  7.786524663069E-03  1.379922030334E-01 -1.636056157776E-01
C15 -3.160419622101E-02 -2.652476036103E-01  2.370735783640E-01
C16  3.160419622101E-02  2.652476036103E-01 -2.370735783640E-01
C17  2.966566250404E-02 -1.815548463175E-01  3.480694961908E-01
C18 -2.966566250404E-02  1.815548463175E-01 -3.480694961908E-01
H19  1.672912194538E-01  1.009792122480E-01  4.710805730749E-01
H20 -1.672912194538E-01 -1.009792122480E-01 -4.710805730749E-01
H21  2.093004812608E-01  3.185184100280E-01  3.488669739464E-01
H22 -2.093004812608E-01 -3.185184100280E-01 -3.488669739464E-01
H23  1.750892395401E-01  3.531474839179E-01  1.640888647277E-01
H24 -1.750892395401E-01 -3.531474839179E-01 -1.640888647277E-01
H25  1.357034341388E-01  3.861411309180E-01 -2.246099080906E-02
H26 -1.357034341388E-01 -3.861411309180E-01  2.246099080906E-02
H27 -9.116662934877E-02 -4.257269278162E-01  2.038964574751E-01
H28  9.116662934877E-02  4.257269278162E-01 -2.038964574751E-01
H29  9.623091015466E-03 -2.745539719121E-01  4.005507709254E-01
H30 -9.623091015466E-03  2.745539719121E-01 -4.005507709254E-01
C31 -4.577175389072E-01 -4.329977477021E-01  3.780407687088E-01
C32  4.577175389072E-01  4.329977477021E-01 -3.780407687088E-01
C33  4.842689592794E-01 -3.146537131418E-01  2.931269875703E-01
C34 -4.842689592794E-01  3.146537131418E-01 -2.931269875703E-01
C35 -4.999359144821E-01 -4.135532032633E-01  1.935644059085E-01
C36  4.999359144821E-01  4.135532032633E-01 -1.935644059085E-01
C37  4.436348813175E-01 -2.992734658253E-01  1.046212656128E-01
C38 -4.436348813175E-01  2.992734658253E-01 -1.046212656128E-01
C39  4.593833325416E-01 -3.891116298687E-01  4.335647988621E-03
C40 -4.593833325416E-01  3.891116298687E-01 -4.335647988621E-03
C41  4.061744901138E-01 -2.754757959678E-01 -8.309559841513E-02
C42 -4.061744901138E-01  2.754757959678E-01  8.309559841513E-02
C43 -4.226818220101E-01  3.665325723252E-01  1.811765558275E-01
C44  4.226818220101E-01 -3.665325723252E-01 -1.811765558275E-01
C45 -3.697573430802E-01  2.560910435310E-01  2.693138732122E-01
C46  3.697573430802E-01 -2.560910435310E-01 -2.693138732122E-01
C47 -3.815209036591E-01  3.427531024517E-01  3.660599640136E-01
C48  3.815209036591E-01 -3.427531024517E-01 -3.660599640136E-01
H49 -4.684832296330E-01 -3.514828729137E-01  4.536136121509E-01
H50  4.684832296330E-01  3.514828729137E-01 -4.536136121509E-01
H51  4.286236260669E-01 -1.497653911131E-01  3.043417526431E-01
H52 -4.286236260669E-01  1.497653911131E-01 -3.043417526431E-01
H53  3.862326896492E-01 -1.321343314622E-01  1.134264101019E-01
H54 -3.862326896492E-01  1.321343314622E-01 -1.134264101019E-01
H55  3.507441806973E-01 -1.126178021234E-01 -7.291220552172E-02
H56 -3.507441806973E-01  1.126178021234E-01  7.291220552172E-02
H57 -3.146558890289E-01  8.908452491263E-02  2.560811055354E-01
H58  3.146558890289E-01 -8.908452491263E-02 -2.560811055354E-01
H59 -3.390489162045E-01  2.530089304432E-01  4.290069194380E-01
H60  3.390489162045E-01 -2.530089304432E-01 -4.290069194380E-01


#===END

data_OPT_STEP_4

_symmetry_space_group_name_H-M 'P 1'
_cell_length_a      8.04393844
_cell_length_b      6.14882705
_cell_length_c     13.56264544
_cell_angle_alpha  100.895345
_cell_angle_beta  113.070353
_cell_angle_gamma   85.722492

loop_
_atom_site_label
_atom_site_fract_x
_atom_site_fract_y
_atom_site_fract_z
C1  1.177136426117E-01  3.718652163244E-02  3.871540967242E-01
C2 -1.177136426117E-01 -3.718652163244E-02 -3.871540967242E-01
C3  1.455883550594E-01  1.556994950217E-01  3.198468996941E-01
C4 -1.455883550594E-01 -1.556994950217E-01 -3.198468996941E-01
C5  8.133544586830E-02  7.338030527213E-02  2.042853277946E-01
C6 -8.133544586830E-02 -7.338030527213E-02 -2.042853277946E-01
C7  1.024134389756E-01  1.920892930192E-01  1.332048811760E-01
C8 -1.024134389756E-01 -1.920892930192E-01 -1.332048811760E-01
C9  4.418530644226E-02  1.074957874191E-01  2.047221438136E-02
C10 -4.418530644226E-02 -1.074957874191E-01 -2.047221438136E-02
C11  6.330138334006E-02  2.245480851894E-01 -5.318891510711E-02
C12 -6.330138334006E-02 -2.245480851894E-01  5.318891510711E-02
C13  1.093939406011E-03 -1.421039260597E-01  1.644716773815E-01
C14 -1.093939406011E-03  1.421039260597E-01 -1.644716773815E-01
C15 -2.703981743472E-02 -2.594724146580E-01  2.380068485903E-01
C16  2.703981743472E-02  2.594724146580E-01 -2.380068485903E-01
C17  3.562186032416E-02 -1.772028511468E-01  3.469022674283E-01
C18 -3.562186032416E-02  1.772028511468E-01 -3.469022674283E-01
H19  1.591337108949E-01  1.069460065151E-01  4.715876365515E-01
H20 -1.591337108949E-01 -1.069460065151E-01 -4.715876365515E-01
H21  2.089108764352E-01  3.162527721154E-01  3.485828448695E-01
H22 -2.089108764352E-01 -3.162527721154E-01 -3.485828448695E-01
H23  1.701448102228E-01  3.510492259759E-01  1.628237651256E-01
H24 -1.701448102228E-01 -3.510492259759E-01 -1.628237651256E-01
H25  1.281580332442E-01  3.854560062898E-01 -2.340235354352E-02
H26 -1.281580332442E-01 -3.854560062898E-01  2.340235354352E-02
H27 -9.095789649047E-02 -4.188227071394E-01  2.053651300111E-01
H28  9.095789649047E-02  4.188227071394E-01 -2.053651300111E-01
H29  1.867953144979E-02 -2.709535030012E-01  4.011658574380E-01
H30 -1.867953144979E-02  2.709535030012E-01 -4.011658574380E-01
C31 -4.568344164274E-01 -4.314781106453E-01  3.770183946226E-01
C32  4.568344164274E-01  4.314781106453E-01 -3.770183946226E-01
C33  4.836174426140E-01 -3.179401349679E-01  2.919053286584E-01
C34 -4.836174426140E-01  3.179401349679E-01 -2.919053286584E-01
C35 -4.992238177283E-01 -4.119150949204E-01  1.918244647451E-01
C36  4.992238177283E-01  4.119150949204E-01 -1.918244647451E-01
C37  4.460177471593E-01 -2.984071367231E-01  1.045071586996E-01
C38 -4.460177471593E-01  2.984071367231E-01 -1.045071586996E-01
C39  4.666264057891E-01 -3.870861016820E-01  6.333673801465E-03
C40 -4.666264057891E-01  3.870861016820E-01 -6.333673801465E-03
C41  4.105926807082E-01 -2.746124905267E-01 -8.175358593000E-02
C42 -4.105926807082E-01  2.746124905267E-01  8.175358593000E-02
C43 -4.272243704639E-01  3.666629579976E-01  1.793622559426E-01
C44  4.272243704639E-01 -3.666629579976E-01 -1.793622559426E-01
C45 -3.706868182242E-01  2.565651808588E-01  2.697047494137E-01
C46  3.706868182242E-01 -2.565651808588E-01 -2.697047494137E-01
C47 -3.889731880737E-01  3.470412031194E-01  3.646365838152E-01
C48  3.889731880737E-01 -3.470412031194E-01 -3.646365838152E-01
H49 -4.675357020221E-01 -3.517341862313E-01  4.529418552425E-01
H50  4.675357020221E-01  3.517341862313E-01 -4.529418552425E-01
H51  4.243683362365E-01 -1.555607363463E-01  3.015436876690E-01
H52 -4.243683362365E-01  1.555607363463E-01 -3.015436876690E-01
H53  3.850414069939E-01 -1.355582246986E-01  1.123965074595E-01
H54 -3.850414069939E-01  1.355582246986E-01 -1.123965074595E-01
H55  3.500941118227E-01 -1.131310676416E-01 -7.355370677214E-02
H56 -3.500941118227E-01  1.131310676416E-01  7.355370677214E-02
H57 -3.080497780641E-01  9.412373948790E-02  2.611308719997E-01
H58  3.080497780641E-01 -9.412373948790E-02 -2.611308719997E-01
H59 -3.461589292761E-01  2.588859463102E-01  4.305656138032E-01
H60  3.461589292761E-01 -2.588859463102E-01 -4.305656138032E-01


#===END

data_OPT_STEP_5

_symmetry_space_group_name_H-M 'P 1'
_cell_length_a      8.13909771
_cell_length_b      6.19002174
_cell_length_c     13.58588711
_cell_angle_alpha  101.130471
_cell_angle_beta  112.830864
_cell_angle_gamma   85.777607

loop_
_atom_site_label
_atom_site_fract_x
_atom_site_fract_y
_atom_site_fract_z
C1  1.240745669292E-01  3.087547249696E-02  3.867035305805E-01
C2 -1.240745669292E-01 -3.087547249696E-02 -3.867035305805E-01
C3  1.479169482068E-01  1.503059012114E-01  3.190625963419E-01
C4 -1.479169482068E-01 -1.503059012114E-01 -3.190625963419E-01
C5  8.305006703104E-02  7.059886741717E-02  2.041889581513E-01
C6 -8.305006703104E-02 -7.059886741717E-02 -2.041889581513E-01
C7  1.053333516714E-01  1.881094535486E-01  1.331317941794E-01
C8 -1.053333516714E-01 -1.881094535486E-01 -1.331317941794E-01
C9  4.408822260610E-02  1.062701793210E-01  2.071570062116E-02
C10 -4.408822260610E-02 -1.062701793210E-01 -2.071570062116E-02
C11  6.424085758700E-02  2.238492169215E-01 -5.246104405533E-02
C12 -6.424085758700E-02 -2.238492169215E-01  5.246104405533E-02
C13  1.715074945452E-03 -1.441705801760E-01  1.635955640655E-01
C14 -1.715074945452E-03  1.441705801760E-01 -1.635955640655E-01
C15 -2.722764641597E-02 -2.588439783420E-01  2.371016442142E-01
C16  2.722764641597E-02  2.588439783420E-01 -2.371016442142E-01
C17  2.995208649823E-02 -1.735215049508E-01  3.448109299689E-01
C18 -2.995208649823E-02  1.735215049508E-01 -3.448109299689E-01
H19  1.747516132177E-01  9.309087251378E-02  4.729546292999E-01
H20 -1.747516132177E-01 -9.309087251378E-02 -4.729546292999E-01
H21  2.090399608453E-01  3.119484406578E-01  3.485436260061E-01
H22 -2.090399608453E-01 -3.119484406578E-01 -3.485436260061E-01
H23  1.713587141194E-01  3.469568753799E-01  1.634474209052E-01
H24 -1.713587141194E-01 -3.469568753799E-01 -1.634474209052E-01
H25  1.265639239691E-01  3.848015727713E-01 -2.220184498818E-02
H26 -1.265639239691E-01 -3.848015727713E-01  2.220184498818E-02
H27 -9.110035021114E-02 -4.187422897221E-01  2.051101674926E-01
H28  9.110035021114E-02  4.187422897221E-01 -2.051101674926E-01
H29  8.949692279392E-03 -2.644609678653E-01  3.992985784492E-01
H30 -8.949692279392E-03  2.644609678653E-01 -3.992985784492E-01
C31 -4.546819259697E-01 -4.282592196120E-01  3.767750709835E-01
C32  4.546819259697E-01  4.282592196120E-01 -3.767750709835E-01
C33  4.862481967132E-01 -3.170933561155E-01  2.919565014665E-01
C34 -4.862481967132E-01  3.170933561155E-01 -2.919565014665E-01
C35 -4.988481661247E-01 -4.105404488852E-01  1.910824885097E-01
C36  4.988481661247E-01  4.105404488852E-01 -1.910824885097E-01
C37  4.460016889549E-01 -2.988288294902E-01  1.042631008009E-01
C38 -4.460016889549E-01  2.988288294902E-01 -1.042631008009E-01
C39  4.645306175397E-01 -3.894979659866E-01  6.001571723136E-03
C40 -4.645306175397E-01  3.894979659866E-01 -6.001571723136E-03
C41  4.045027377056E-01 -2.802834170376E-01 -8.304774404671E-02
C42 -4.045027377056E-01  2.802834170376E-01  8.304774404671E-02
C43 -4.222474535655E-01  3.721271323021E-01  1.800957026069E-01
C44  4.222474535655E-01 -3.721271323021E-01 -1.800957026069E-01
C45 -3.648896074123E-01  2.620632893549E-01  2.707909091016E-01
C46  3.648896074123E-01 -2.620632893549E-01 -2.707909091016E-01
C47 -3.801606749016E-01  3.572524959588E-01  3.661088250283E-01
C48  3.801606749016E-01 -3.572524959588E-01 -3.661088250283E-01
H49 -4.664547460576E-01 -3.508025446542E-01  4.526338899900E-01
H50  4.664547460576E-01  3.508025446542E-01 -4.526338899900E-01
H51  4.355733327991E-01 -1.510832653455E-01  3.026983151947E-01
H52 -4.355733327991E-01  1.510832653455E-01 -3.026983151947E-01
H53  3.954233800305E-01 -1.324475716133E-01  1.143975919607E-01
H54 -3.954233800305E-01  1.324475716133E-01 -1.143975919607E-01
H55  3.507197496898E-01 -1.155916151907E-01 -7.387514065002E-02
H56 -3.507197496898E-01  1.155916151907E-01  7.387514065002E-02
H57 -3.166970860692E-01  9.383428876365E-02  2.601240200318E-01
H58  3.166970860692E-01 -9.383428876365E-02 -2.601240200318E-01
H59 -3.319165498318E-01  2.730292739280E-01  4.344029575442E-01
H60  3.319165498318E-01 -2.730292739280E-01 -4.344029575442E-01


#===END

data_OPT_STEP_6

_symmetry_space_group_name_H-M 'P 1'
_cell_length_a      8.26373070
_cell_length_b      6.22656222
_cell_length_c     13.60456679
_cell_angle_alpha  101.082381
_cell_angle_beta  112.712517
_cell_angle_gamma   86.324575

loop_
_atom_site_label
_atom_site_fract_x
_atom_site_fract_y
_atom_site_fract_z
C1  1.211423479597E-01  3.549539725225E-02  3.863767753925E-01
C2 -1.211423479597E-01 -3.549539725225E-02 -3.863767753925E-01
C3  1.442735821560E-01  1.533689192981E-01  3.181967290508E-01
C4 -1.442735821560E-01 -1.533689192981E-01 -3.181967290508E-01
C5  8.208570480230E-02  7.214704847087E-02  2.039966465328E-01
C6 -8.208570480230E-02 -7.214704847087E-02 -2.039966465328E-01
C7  1.060322849685E-01  1.872649257506E-01  1.328205405705E-01
C8 -1.060322849685E-01 -1.872649257506E-01 -1.328205405705E-01
C9  4.366944841531E-02  1.056851264841E-01  2.068173942109E-02
C10 -4.366944841531E-02 -1.056851264841E-01 -2.068173942109E-02
C11  6.701989422257E-02  2.209166330707E-01 -5.220491532603E-02
C12 -6.701989422257E-02 -2.209166330707E-01  5.220491532603E-02
C13 -4.858965519430E-03 -1.391900530868E-01  1.627642199050E-01
C14  4.858965519430E-03  1.391900530868E-01 -1.627642199050E-01
C15 -2.525457001229E-02 -2.574882486011E-01  2.377397744655E-01
C16  2.525457001229E-02  2.574882486011E-01 -2.377397744655E-01
C17  3.450584140803E-02 -1.724532296194E-01  3.454898269318E-01
C18 -3.450584140803E-02  1.724532296194E-01 -3.454898269318E-01
H19  1.699650320052E-01  9.866618910420E-02  4.726973921859E-01
H20 -1.699650320052E-01 -9.866618910420E-02 -4.726973921859E-01
H21  2.073891843050E-01  3.134611436199E-01  3.480639300200E-01
H22 -2.073891843050E-01 -3.134611436199E-01 -3.480639300200E-01
H23  1.706905303322E-01  3.463320853979E-01  1.632811721932E-01
H24 -1.706905303322E-01 -3.463320853979E-01 -1.632811721932E-01
H25  1.303926450446E-01  3.804360329106E-01 -2.172208089145E-02
H26 -1.303926450446E-01 -3.804360329106E-01  2.172208089145E-02
H27 -8.918130343075E-02 -4.172707471992E-01  2.063117238385E-01
H28  8.918130343075E-02  4.172707471992E-01 -2.063117238385E-01
H29  1.815982364674E-02 -2.645051793890E-01  4.010379337997E-01
H30 -1.815982364674E-02  2.645051793890E-01 -4.010379337997E-01
C31 -4.520726265887E-01 -4.260166841561E-01  3.769265231693E-01
C32  4.520726265887E-01  4.260166841561E-01 -3.769265231693E-01
C33  4.888114394180E-01 -3.171160819651E-01  2.920866457531E-01
C34 -4.888114394180E-01  3.171160819651E-01 -2.920866457531E-01
C35 -4.971353389376E-01 -4.095756004505E-01  1.910861559161E-01
C36  4.971353389376E-01  4.095756004505E-01 -1.910861559161E-01
C37  4.427053588773E-01 -3.025201831292E-01  1.031737340793E-01
C38 -4.427053588773E-01  3.025201831292E-01 -1.031737340793E-01
C39  4.592025475806E-01 -3.938365903609E-01  4.712172196611E-03
C40 -4.592025475806E-01  3.938365903609E-01 -4.712172196611E-03
C41  3.990192653066E-01 -2.865757049747E-01 -8.472027219193E-02
C42 -3.990192653066E-01  2.865757049747E-01  8.472027219193E-02
C43 -4.170440355690E-01  3.776988914418E-01  1.813889674462E-01
C44  4.170440355690E-01 -3.776988914418E-01 -1.813889674462E-01
C45 -3.557170600903E-01  2.705586916875E-01  2.730097163635E-01
C46  3.557170600903E-01 -2.705586916875E-01 -2.730097163635E-01
C47 -3.759815432080E-01  3.635266364473E-01  3.667456826596E-01
C48  3.759815432080E-01 -3.635266364473E-01 -3.667456826596E-01
H49 -4.631682772092E-01 -3.504591195416E-01  4.529027706297E-01
H50  4.631682772092E-01  3.504591195416E-01 -4.529027706297E-01
H51  4.348167779395E-01 -1.546472991510E-01  3.013277024571E-01
H52 -4.348167779395E-01  1.546472991510E-01 -3.013277024571E-01
H53  3.882629453396E-01 -1.404294614851E-01  1.120134007891E-01
H54 -3.882629453396E-01  1.404294614851E-01 -1.120134007891E-01
H55  3.449341187205E-01 -1.237796260398E-01 -7.612922449803E-02
H56 -3.449341187205E-01  1.237796260398E-01  7.612922449803E-02
H57 -2.977987425428E-01  1.099763856516E-01  2.651310445207E-01
H58  2.977987425428E-01 -1.099763856516E-01 -2.651310445207E-01
H59 -3.305082573374E-01  2.791069841378E-01  4.349389855430E-01
H60  3.305082573374E-01 -2.791069841378E-01 -4.349389855430E-01


#===END

data_OPT_STEP_7

_symmetry_space_group_name_H-M 'P 1'
_cell_length_a      8.37531826
_cell_length_b      6.26219053
_cell_length_c     13.61174712
_cell_angle_alpha  100.803518
_cell_angle_beta  112.591642
_cell_angle_gamma   86.789034

loop_
_atom_site_label
_atom_site_fract_x
_atom_site_fract_y
_atom_site_fract_z
C1  1.215615041407E-01  3.969511285489E-02  3.869144597236E-01
C2 -1.215615041407E-01 -3.969511285489E-02 -3.869144597236E-01
C3  1.416984935702E-01  1.571205256384E-01  3.175542354949E-01
C4 -1.416984935702E-01 -1.571205256384E-01 -3.175542354949E-01
C5  8.319241241929E-02  7.301741343977E-02  2.040739517049E-01
C6 -8.319241241929E-02 -7.301741343977E-02 -2.040739517049E-01
C7  1.037083310497E-01  1.883596619908E-01  1.318847082200E-01
C8 -1.037083310497E-01 -1.883596619908E-01 -1.318847082200E-01
C9  4.370393308307E-02  1.046943908050E-01  2.033353600759E-02
C10 -4.370393308307E-02 -1.046943908050E-01 -2.033353600759E-02
C11  6.403392643255E-02  2.204468454073E-01 -5.334682205556E-02
C12 -6.403392643256E-02 -2.204468454073E-01  5.334682205556E-02
C13 -5.850481732518E-03 -1.362217702750E-01  1.632340709706E-01
C14  5.850481732518E-03  1.362217702750E-01 -1.632340709706E-01
C15 -2.348423716915E-02 -2.541233937985E-01  2.393219839582E-01
C16  2.348423716915E-02  2.541233937985E-01 -2.393219839582E-01
C17  3.937587905202E-02 -1.698917736011E-01  3.472979367446E-01
C18 -3.937587905202E-02  1.698917736011E-01 -3.472979367446E-01
H19  1.675732816982E-01  1.047802868610E-01  4.728666970806E-01
H20 -1.675732816982E-01 -1.047802868610E-01 -4.728666970806E-01
H21  2.061138965903E-01  3.154345830959E-01  3.473183059440E-01
H22 -2.061138965903E-01 -3.154345830959E-01 -3.473183059440E-01
H23  1.677215903809E-01  3.468349213492E-01  1.621228573615E-01
H24 -1.677215903809E-01 -3.468349213492E-01 -1.621228573615E-01
H25  1.312065250858E-01  3.767618036098E-01 -2.283691482547E-02
H26 -1.312065250858E-01 -3.767618036098E-01  2.283691482547E-02
H27 -8.800214234383E-02 -4.126402321134E-01  2.088088793458E-01
H28  8.800214234383E-02  4.126402321134E-01 -2.088088793458E-01
H29  2.423524341235E-02 -2.607559209812E-01  4.037555138196E-01
H30 -2.423524341235E-02  2.607559209812E-01 -4.037555138196E-01
C31 -4.493105818062E-01 -4.234280176735E-01  3.774038912949E-01
C32  4.493105818062E-01  4.234280176735E-01 -3.774038912949E-01
C33  4.964770144092E-01 -3.133285091299E-01  2.933451300535E-01
C34 -4.964770144092E-01  3.133285091299E-01 -2.933451300535E-01
C35 -4.907499500117E-01 -4.059518302331E-01  1.923598554846E-01
C36  4.907499500117E-01  4.059518302331E-01 -1.923598554846E-01
C37  4.556459098369E-01 -2.971749744649E-01  1.055294585483E-01
C38 -4.556459098369E-01  2.971749744649E-01 -1.055294585483E-01
C39  4.668212282774E-01 -3.918151991856E-01  6.090296028774E-03
C40 -4.668212282774E-01  3.918151991856E-01 -6.090296028774E-03
C41  4.124067181073E-01 -2.827671784469E-01 -8.250517696153E-02
C42 -4.124067181073E-01  2.827671784469E-01  8.250517696153E-02
C43 -4.224028468220E-01  3.777923352861E-01  1.807341911140E-01
C44  4.224028468220E-01 -3.777923352861E-01 -1.807341911140E-01
C45 -3.672207205793E-01  2.678187789211E-01  2.710605309893E-01
C46  3.672207205793E-01 -2.678187789211E-01 -2.710605309893E-01
C47 -3.717132595452E-01  3.689272702886E-01  3.680299137314E-01
C48  3.717132595452E-01 -3.689272702886E-01 -3.680299137314E-01
H49 -4.601345911691E-01 -3.501015783028E-01  4.532774440254E-01
H50  4.601345911691E-01  3.501015783028E-01 -4.532774440254E-01
H51  4.378452982765E-01 -1.549521321017E-01  3.005894135870E-01
H52 -4.378452982765E-01  1.549521321017E-01 -3.005894135870E-01
H53  3.956616022548E-01 -1.397417311911E-01  1.123551355191E-01
H54 -3.956616022548E-01  1.397417311911E-01 -1.123551355191E-01
H55  3.531441756320E-01 -1.245904500521E-01 -7.555806522118E-02
H56 -3.531441756320E-01  1.245904500521E-01  7.555806522118E-02
H57 -3.161916687163E-01  1.062278146377E-01  2.621860135815E-01
H58  3.161916687163E-01 -1.062278146377E-01 -2.621860135815E-01
H59 -3.215208841063E-01  2.881340362373E-01  4.377933957545E-01
H60  3.215208841063E-01 -2.881340362373E-01 -4.377933957545E-01


#===END

data_OPT_STEP_8

_symmetry_space_group_name_H-M 'P 1'
_cell_length_a      8.27844782
_cell_length_b      6.23760910
_cell_length_c     13.60763904
_cell_angle_alpha  101.016626
_cell_angle_beta  112.691141
_cell_angle_gamma   86.370153

loop_
_atom_site_label
_atom_site_fract_x
_atom_site_fract_y
_atom_site_fract_z
C1  1.211323278227E-01  3.638501783790E-02  3.865031969884E-01
C2 -1.211323278227E-01 -3.638501783790E-02 -3.865031969884E-01
C3  1.431010676147E-01  1.543048406986E-01  3.179555060005E-01
C4 -1.431010676147E-01 -1.543048406986E-01 -3.179555060005E-01
C5  8.269946493640E-02  7.193566401649E-02  2.040452209876E-01
C6 -8.269946493640E-02 -7.193566401649E-02 -2.040452209876E-01
C7  1.055754422151E-01  1.872195358006E-01  1.325864531648E-01
C8 -1.055754422151E-01 -1.872195358006E-01 -1.325864531648E-01
C9  4.398430237753E-02  1.051393384790E-01  2.064627000447E-02
C10 -4.398430237753E-02 -1.051393384790E-01 -2.064627000447E-02
C11  6.603926267548E-02  2.209608713627E-01 -5.246040794040E-02
C12 -6.603926267548E-02 -2.209608713627E-01  5.246040794040E-02
C13 -5.508791852793E-03 -1.384190489668E-01  1.627822446032E-01
C14  5.508791852793E-03  1.384190489668E-01 -1.627822446032E-01
C15 -2.545180936819E-02 -2.563714576499E-01  2.380308045803E-01
C16  2.545180936819E-02  2.563714576499E-01 -2.380308045803E-01
C17  3.558669782618E-02 -1.718809364840E-01  3.458982908466E-01
C18 -3.558669782618E-02  1.718809364840E-01 -3.458982908466E-01
H19  1.690340021319E-01  1.000569825684E-01  4.727468660800E-01
H20 -1.690340021319E-01 -1.000569825684E-01 -4.727468660800E-01
H21  2.064468927425E-01  3.139332115085E-01  3.478541249678E-01
H22 -2.064468927425E-01 -3.139332115085E-01 -3.478541249678E-01
H23  1.701397984594E-01  3.460035623492E-01  1.631068243568E-01
H24 -1.701397984594E-01 -3.460035623492E-01 -1.631068243568E-01
H25  1.311913476849E-01  3.791188293729E-01 -2.181020597603E-02
H26 -1.311913476849E-01 -3.791188293729E-01  2.181020597603E-02
H27 -8.970640704954E-02 -4.156459516453E-01  2.068791526389E-01
H28  8.970640704954E-02  4.156459516453E-01 -2.068791526389E-01
H29  1.926954499346E-02 -2.634143433021E-01  4.016991680093E-01
H30 -1.926954499346E-02  2.634143433021E-01 -4.016991680093E-01
C31 -4.513608252251E-01 -4.251047913148E-01  3.770246639003E-01
C32  4.513608252251E-01  4.251047913148E-01 -3.770246639003E-01
C33  4.908948123977E-01 -3.157601960484E-01  2.924320058624E-01
C34 -4.908948123977E-01  3.157601960484E-01 -2.924320058624E-01
C35 -4.951334931629E-01 -4.082666662846E-01  1.914880406928E-01
C36  4.951334931629E-01  4.082666662846E-01 -1.914880406928E-01
C37  4.464104651132E-01 -3.007312103311E-01  1.038777122766E-01
C38 -4.464104651132E-01  3.007312103311E-01 -1.038777122766E-01
C39  4.614048690703E-01 -3.932111617497E-01  5.135301934165E-03
C40 -4.614048690703E-01  3.932111617497E-01 -5.135301934165E-03
C41  4.025764041960E-01 -2.854665551482E-01 -8.411568423823E-02
C42 -4.025764041960E-01  2.854665551482E-01  8.411568423823E-02
C43 -4.180681273520E-01  3.779672242932E-01  1.812912376961E-01
C44  4.180681273520E-01 -3.779672242932E-01 -1.812912376961E-01
C45 -3.588338134370E-01  2.695742767926E-01  2.724269120899E-01
C46  3.588338134370E-01 -2.695742767926E-01 -2.724269120899E-01
C47 -3.735882770243E-01  3.656020474541E-01  3.673004778924E-01
C48  3.735882770243E-01 -3.656020474541E-01 -3.673004778924E-01
H49 -4.624909190480E-01 -3.503537932540E-01  4.529572064648E-01
H50  4.624909190480E-01  3.503537932540E-01 -4.529572064648E-01
H51  4.340748317889E-01 -1.550410825237E-01  3.007213581999E-01
H52 -4.340748317889E-01  1.550410825237E-01 -3.007213581999E-01
H53  3.880966978575E-01 -1.409733441130E-01  1.116240743340E-01
H54 -3.880966978575E-01  1.409733441130E-01 -1.116240743340E-01
H55  3.446998315890E-01 -1.250235075214E-01 -7.648658306731E-02
H56 -3.446998315890E-01  1.250235075214E-01  7.648658306731E-02
H57 -3.022741689098E-01  1.089319459931E-01  2.644021424519E-01
H58  3.022741689098E-01 -1.089319459931E-01 -2.644021424519E-01
H59 -3.262758971554E-01  2.823797673318E-01  4.360866372950E-01
H60  3.262758971554E-01 -2.823797673318E-01 -4.360866372950E-01


#===END

data_OPT_STEP_9

_symmetry_space_group_name_H-M 'P 1'
_cell_length_a      8.29934978
_cell_length_b      6.25146982
_cell_length_c     13.60420265
_cell_angle_alpha  100.873868
_cell_angle_beta  112.664674
_cell_angle_gamma   86.560437

loop_
_atom_site_label
_atom_site_fract_x
_atom_site_fract_y
_atom_site_fract_z
C1  1.211531804318E-01  3.744986144351E-02  3.867555181725E-01
C2 -1.211531804318E-01 -3.744986144351E-02 -3.867555181725E-01
C3  1.426800757156E-01  1.551253585479E-01  3.179112819089E-01
C4 -1.426800757156E-01 -1.551253585479E-01 -3.179112819089E-01
C5  8.204076902349E-02  7.263820170642E-02  2.040250263094E-01
C6 -8.204076902349E-02 -7.263820170642E-02 -2.040250263094E-01
C7  1.033427777416E-01  1.884525215697E-01  1.321729737750E-01
C8 -1.033427777416E-01 -1.884525215697E-01 -1.321729737750E-01
C9  4.352806243776E-02  1.052234304190E-01  2.043110924670E-02
C10 -4.352806243776E-02 -1.052234304190E-01 -2.043110924670E-02
C11  6.497414299486E-02  2.208807522775E-01 -5.298919709242E-02
C12 -6.497414299486E-02 -2.208807522775E-01  5.298919709242E-02
C13 -3.974773727862E-03 -1.385407062044E-01  1.632836289087E-01
C14  3.974773727862E-03  1.385407062044E-01 -1.632836289087E-01
C15 -2.489069224743E-02 -2.553864201774E-01  2.386148743319E-01
C16  2.489069224743E-02  2.553864201774E-01 -2.386148743319E-01
C17  3.488054875109E-02 -1.700769628155E-01  3.463735320504E-01
C18 -3.488054875109E-02  1.700769628155E-01 -3.463735320504E-01
H19  1.682189459890E-01  1.018256820721E-01  4.728357896713E-01
H20 -1.682189459890E-01 -1.018256820721E-01 -4.728357896713E-01
H21  2.060535309137E-01  3.143021890239E-01  3.476731299310E-01
H22 -2.060535309137E-01 -3.143021890239E-01 -3.476731299310E-01
H23  1.684948672413E-01  3.465004275086E-01  1.626330657397E-01
H24 -1.684948672413E-01 -3.465004275086E-01 -1.626330657397E-01
H25  1.317658179372E-01  3.777963066395E-01 -2.237866453562E-02
H26 -1.317658179372E-01 -3.777963066395E-01  2.237866453562E-02
H27 -8.958211441590E-02 -4.138757995415E-01  2.077596536525E-01
H28  8.958211441590E-02  4.138757995415E-01 -2.077596536525E-01
H29  1.690802409652E-02 -2.602292396387E-01  4.022270827453E-01
H30 -1.690802409652E-02  2.602292396387E-01 -4.022270827453E-01
C31 -4.509857632235E-01 -4.246072363166E-01  3.771483709192E-01
C32  4.509857632235E-01  4.246072363166E-01 -3.771483709192E-01
C33  4.910553682923E-01 -3.157422727462E-01  2.923658248582E-01
C34 -4.910553682923E-01  3.157422727462E-01 -2.923658248582E-01
C35 -4.955794228921E-01 -4.086013623192E-01  1.914038301096E-01
C36  4.955794228921E-01  4.086013623192E-01 -1.914038301096E-01
C37  4.480936419634E-01 -3.004197827990E-01  1.040692351724E-01
C38 -4.480936419634E-01  3.004197827990E-01 -1.040692351724E-01
C39  4.617471845531E-01 -3.935316889252E-01  5.074714553140E-03
C40 -4.617471845531E-01  3.935316889252E-01 -5.074714553140E-03
C41  4.048266565858E-01 -2.852591348255E-01 -8.393977240660E-02
C42 -4.048266565858E-01  2.852591348255E-01  8.393977240660E-02
C43 -4.182768237577E-01  3.786925244062E-01  1.815065396689E-01
C44  4.182768237577E-01 -3.786925244062E-01 -1.815065396689E-01
C45 -3.590174496782E-01  2.708160964269E-01  2.728179525870E-01
C46  3.590174496782E-01 -2.708160964269E-01 -2.728179525870E-01
C47 -3.743901554761E-01  3.661482552909E-01  3.674104858373E-01
C48  3.743901554761E-01 -3.661482552909E-01 -3.674104858373E-01
H49 -4.619565573737E-01 -3.505018983921E-01  4.530387862535E-01
H50  4.619565573737E-01  3.505018983921E-01 -4.530387862535E-01
H51  4.332053926454E-01 -1.562682510675E-01  3.001297453828E-01
H52 -4.332053926454E-01  1.562682510675E-01 -3.001297453828E-01
H53  3.917552094111E-01 -1.402788149613E-01  1.120219261861E-01
H54 -3.917552094111E-01  1.402788149613E-01 -1.120219261861E-01
H55  3.475275954726E-01 -1.253422080905E-01 -7.633325697150E-02
H56 -3.475275954726E-01  1.253422080905E-01  7.633325697150E-02
H57 -3.003342222296E-01  1.119604454292E-01  2.654483656793E-01
H58  3.003342222296E-01 -1.119604454292E-01 -2.654483656793E-01
H59 -3.286419178570E-01  2.826016911756E-01  4.359897348263E-01
H60  3.286419178570E-01 -2.826016911756E-01 -4.359897348263E-01


#===END

data_OPT_STEP_10

_symmetry_space_group_name_H-M 'P 1'
_cell_length_a      8.32298337
_cell_length_b      6.25420521
_cell_length_c     13.59726119
_cell_angle_alpha  100.627939
_cell_angle_beta  112.670556
_cell_angle_gamma   86.773200

loop_
_atom_site_label
_atom_site_fract_x
_atom_site_fract_y
_atom_site_fract_z
C1  1.195622434506E-01  3.944016925185E-02  3.869067405432E-01
C2 -1.195622434506E-01 -3.944016925185E-02 -3.869067405432E-01
C3  1.417523284571E-01  1.564210055587E-01  3.178155228990E-01
C4 -1.417523284571E-01 -1.564210055587E-01 -3.178155228990E-01
C5  8.125776931723E-02  7.355879211692E-02  2.039954934871E-01
C6 -8.125776931723E-02 -7.355879211692E-02 -2.039954934871E-01
C7  1.021984511078E-01  1.893009705999E-01  1.317722898735E-01
C8 -1.021984511078E-01 -1.893009705999E-01 -1.317722898735E-01
C9  4.273446026436E-02  1.057129590886E-01  2.010995018701E-02
C10 -4.273446026436E-02 -1.057129590886E-01 -2.010995018701E-02
C11  6.351287958429E-02  2.214289548993E-01 -5.372472579516E-02
C12 -6.351287958429E-02 -2.214289548993E-01  5.372472579516E-02
C13 -3.695545236398E-03 -1.380727974998E-01  1.638342284077E-01
C14  3.695545236398E-03  1.380727974998E-01 -1.638342284077E-01
C15 -2.443191424297E-02 -2.547524091098E-01  2.394759219952E-01
C16  2.443191424297E-02  2.547524091098E-01 -2.394759219952E-01
C17  3.506966833871E-02 -1.691736271268E-01  3.471377646283E-01
C18 -3.506966833871E-02  1.691736271268E-01 -3.471377646283E-01
H19  1.657779270136E-01  1.046492328083E-01  4.728077715029E-01
H20 -1.657779270136E-01 -1.046492328083E-01 -4.728077715029E-01
H21  2.053386589832E-01  3.152594076141E-01  3.473517186637E-01
H22 -2.053386589832E-01 -3.152594076141E-01 -3.473517186637E-01
H23  1.673588898164E-01  3.471858449626E-01  1.619563492929E-01
H24 -1.673588898164E-01 -3.471858449626E-01 -1.619563492929E-01
H25  1.278148484266E-01  3.796813832985E-01 -2.369763920161E-02
H26 -1.278148484266E-01 -3.796813832985E-01  2.369763920161E-02
H27 -8.909264280964E-02 -4.129049459869E-01  2.090224042396E-01
H28  8.909264280964E-02  4.129049459869E-01 -2.090224042396E-01
H29  1.782344725660E-02 -2.594889348903E-01  4.033058579072E-01
H30 -1.782344725660E-02  2.594889348903E-01 -4.033058579072E-01
C31 -4.504346668009E-01 -4.241732511986E-01  3.773206984346E-01
C32  4.504346668009E-01  4.241732511986E-01 -3.773206984346E-01
C33  4.919392401639E-01 -3.152703358257E-01  2.923340051203E-01
C34 -4.919392401639E-01  3.152703358257E-01 -2.923340051203E-01
C35 -4.952210814773E-01 -4.085504943891E-01  1.914285451444E-01
C36  4.952210814773E-01  4.085504943891E-01 -1.914285451444E-01
C37  4.472527174095E-01 -3.013407821285E-01  1.034991788086E-01
C38 -4.472527174095E-01  3.013407821285E-01 -1.034991788086E-01
C39  4.615053409214E-01 -3.938998665889E-01  4.783172194446E-03
C40 -4.615053409214E-01  3.938998665889E-01 -4.783172194446E-03
C41  4.041111999889E-01 -2.862693447034E-01 -8.463713412793E-02
C42 -4.041111999889E-01  2.862693447034E-01  8.463713412793E-02
C43 -4.184256530477E-01  3.790699638791E-01  1.818539843027E-01
C44  4.184256530477E-01 -3.790699638791E-01 -1.818539843027E-01
C45 -3.593816377475E-01  2.714211853861E-01  2.734356467209E-01
C46  3.593816377475E-01 -2.714211853861E-01 -2.734356467209E-01
C47 -3.748485882361E-01  3.664051938258E-01  3.678327840912E-01
C48  3.748485882361E-01 -3.664051938258E-01 -3.678327840912E-01
H49 -4.611477569731E-01 -3.505416684586E-01  4.531451104087E-01
H50  4.611477569731E-01  3.505416684586E-01 -4.531451104087E-01
H51  4.352053589443E-01 -1.557218960425E-01  2.999259096071E-01
H52 -4.352053589443E-01  1.557218960425E-01 -2.999259096071E-01
H53  3.902983715977E-01 -1.418811006431E-01  1.109319176480E-01
H54 -3.902983715977E-01  1.418811006431E-01 -1.109319176480E-01
H55  3.464640389242E-01 -1.271046535324E-01 -7.739822978556E-02
H56 -3.464640389242E-01  1.271046535324E-01  7.739822978556E-02
H57 -3.014939363495E-01  1.125804161332E-01  2.662206452859E-01
H58  3.014939363495E-01 -1.125804161332E-01 -2.662206452859E-01
H59 -3.292567143447E-01  2.831161787048E-01  4.366310737507E-01
H60  3.292567143447E-01 -2.831161787048E-01 -4.366310737507E-01


#===END

data_OPT_STEP_11

_symmetry_space_group_name_H-M 'P 1'
_cell_length_a      8.31921212
_cell_length_b      6.24675792
_cell_length_c     13.58926396
_cell_angle_alpha  100.497774
_cell_angle_beta  112.709683
_cell_angle_gamma   86.507421

loop_
_atom_site_label
_atom_site_fract_x
_atom_site_fract_y
_atom_site_fract_z
C1  1.192720368143E-01  4.064348993088E-02  3.872011469874E-01
C2 -1.192720368143E-01 -4.064348993088E-02 -3.872011469874E-01
C3  1.411157483736E-01  1.573684431151E-01  3.177714587719E-01
C4 -1.411157483736E-01 -1.573684431151E-01 -3.177714587719E-01
C5  8.113189437006E-02  7.409686723162E-02  2.040551326167E-01
C6 -8.113189437006E-02 -7.409686723162E-02 -2.040551326167E-01
C7  1.031874362808E-01  1.885752771886E-01  1.315632889473E-01
C8 -1.031874362808E-01 -1.885752771886E-01 -1.315632889473E-01
C9  4.350556802433E-02  1.050805743753E-01  1.993408568773E-02
C10 -4.350556802433E-02 -1.050805743753E-01 -1.993408568773E-02
C11  6.576448235010E-02  2.193555162433E-01 -5.413443892183E-02
C12 -6.576448235010E-02 -2.193555162433E-01  5.413443892183E-02
C13 -5.292940656637E-03 -1.363300344781E-01  1.642161993784E-01
C14  5.292940656637E-03  1.363300344781E-01 -1.642161993784E-01
C15 -2.541396556700E-02 -2.527044823150E-01  2.402691315562E-01
C16  2.541396556700E-02  2.527044823150E-01 -2.402691315562E-01
C17  3.488382298041E-02 -1.676513028646E-01  3.478739049594E-01
C18 -3.488382298041E-02  1.676513028646E-01 -3.478739049594E-01
H19  1.667178415107E-01  1.053101703261E-01  4.731727213331E-01
H20 -1.667178415107E-01 -1.053101703261E-01 -4.731727213331E-01
H21  2.036935373254E-01  3.164059614401E-01  3.470550504800E-01
H22 -2.036935373254E-01 -3.164059614401E-01 -3.470550504800E-01
H23  1.679232287331E-01  3.463377224436E-01  1.614494574743E-01
H24 -1.679232287331E-01 -3.463377224436E-01 -1.614494574743E-01
H25  1.307937661531E-01  3.769293067107E-01 -2.434891412722E-02
H26 -1.307937661531E-01 -3.769293067107E-01  2.434891412722E-02
H27 -8.960873011823E-02 -4.105908875163E-01  2.103101690094E-01
H28  8.960873011823E-02  4.105908875163E-01 -2.103101690094E-01
H29  1.837518365073E-02 -2.580793028520E-01  4.043660541460E-01
H30 -1.837518365073E-02  2.580793028520E-01 -4.043660541460E-01
C31 -4.507269628625E-01 -4.238930417040E-01  3.773299922487E-01
C32  4.507269628625E-01  4.238930417040E-01 -3.773299922487E-01
C33  4.905464833065E-01 -3.149445883615E-01  2.919663052550E-01
C34 -4.905464833065E-01  3.149445883615E-01 -2.919663052550E-01
C35 -4.951016788106E-01 -4.081483784806E-01  1.914491863661E-01
C36  4.951016788106E-01  4.081483784806E-01 -1.914491863661E-01
C37  4.465028240080E-01 -3.009498695956E-01  1.031299029183E-01
C38 -4.465028240080E-01  3.009498695956E-01 -1.031299029183E-01
C39  4.617404731070E-01 -3.933783140740E-01  4.716412189619E-03
C40 -4.617404731070E-01  3.933783140740E-01 -4.716412189619E-03
C41  4.034061582260E-01 -2.857877908303E-01 -8.509582913926E-02
C42 -4.034061582260E-01  2.857877908303E-01  8.509582913926E-02
C43 -4.186705615989E-01  3.785072961205E-01  1.820180249244E-01
C44  4.186705615989E-01 -3.785072961205E-01 -1.820180249244E-01
C45 -3.590453914359E-01  2.707524671323E-01  2.739944588895E-01
C46  3.590453914359E-01 -2.707524671323E-01 -2.739944588895E-01
C47 -3.753111006423E-01  3.656096041164E-01  3.680863916337E-01
C48  3.753111006423E-01 -3.656096041164E-01 -3.680863916337E-01
H49 -4.612010869849E-01 -3.505015230765E-01  4.531810831727E-01
H50  4.612010869849E-01  3.505015230765E-01 -4.531810831727E-01
H51  4.326054455528E-01 -1.555277961692E-01  2.990084017411E-01
H52 -4.326054455528E-01  1.555277961692E-01 -2.990084017411E-01
H53  3.883161195617E-01 -1.414674142335E-01  1.100618580054E-01
H54 -3.883161195617E-01  1.414674142335E-01 -1.100618580054E-01
H55  3.455361488497E-01 -1.263153510717E-01 -7.804163980284E-02
H56 -3.455361488497E-01  1.263153510717E-01  7.804163980284E-02
H57 -3.001062797192E-01  1.118504487682E-01  2.672345426425E-01
H58  3.001062797192E-01 -1.118504487682E-01 -2.672345426425E-01
H59 -3.294031100956E-01  2.823224515117E-01  4.372062778609E-01
H60  3.294031100956E-01 -2.823224515117E-01 -4.372062778609E-01


#===END

data_OPT_STEP_12

_symmetry_space_group_name_H-M 'P 1'
_cell_length_a      8.34006498
_cell_length_b      6.23771688
_cell_length_c     13.58432602
_cell_angle_alpha  100.344224
_cell_angle_beta  112.776371
_cell_angle_gamma   86.342196

loop_
_atom_site_label
_atom_site_fract_x
_atom_site_fract_y
_atom_site_fract_z
C1  1.201849891632E-01  4.152886750869E-02  3.875372531220E-01
C2 -1.201849891632E-01 -4.152886750869E-02 -3.875372531220E-01
C3  1.418745896414E-01  1.577656972685E-01  3.177439419637E-01
C4 -1.418745896414E-01 -1.577656972685E-01 -3.177439419637E-01
C5  8.165316126036E-02  7.443668895056E-02  2.041108214169E-01
C6 -8.165316126036E-02 -7.443668895056E-02 -2.041108214169E-01
C7  1.040677924444E-01  1.880819050505E-01  1.313132563378E-01
C8 -1.040677924444E-01 -1.880819050505E-01 -1.313132563378E-01
C9  4.357989528363E-02  1.048533042029E-01  1.970740309500E-02
C10 -4.357989528363E-02 -1.048533042029E-01 -1.970740309500E-02
C11  6.538104951717E-02  2.188455048298E-01 -5.473807638562E-02
C12 -6.538104951717E-02 -2.188455048298E-01  5.473807638562E-02
C13 -4.802659889921E-03 -1.356789558085E-01  1.647363611189E-01
C14  4.802659889921E-03  1.356789558085E-01 -1.647363611189E-01
C15 -2.444409259410E-02 -2.516979351026E-01  2.412099221520E-01
C16  2.444409259410E-02  2.516979351026E-01 -2.412099221520E-01
C17  3.694014562599E-02 -1.670808718222E-01  3.487977261742E-01
C18 -3.694014562599E-02  1.670808718222E-01 -3.487977261742E-01
H19  1.669327960975E-01  1.068575000510E-01  4.733772706670E-01
H20 -1.669327960975E-01 -1.068575000510E-01 -4.733772706670E-01
H21  2.041004342867E-01  3.167778601214E-01  3.466859115084E-01
H22 -2.041004342867E-01 -3.167778601214E-01 -3.466859115084E-01
H23  1.682656162099E-01  3.459234461826E-01  1.608065735461E-01
H24 -1.682656162099E-01 -3.459234461826E-01 -1.608065735461E-01
H25  1.305627050781E-01  3.761136756369E-01 -2.526932417860E-02
H26 -1.305627050781E-01 -3.761136756369E-01  2.526932417860E-02
H27 -8.831334537563E-02 -4.095746999277E-01  2.116471444509E-01
H28  8.831334537563E-02  4.095746999277E-01 -2.116471444509E-01
H29  2.166461231453E-02 -2.578052152988E-01  4.056701217227E-01
H30 -2.166461231453E-02  2.578052152988E-01 -4.056701217227E-01
C31 -4.509000608813E-01 -4.237613964593E-01  3.773901928852E-01
C32  4.509000608813E-01  4.237613964593E-01 -3.773901928852E-01
C33  4.911459510736E-01 -3.141387685924E-01  2.919624770739E-01
C34 -4.911459510736E-01  3.141387685924E-01 -2.919624770739E-01
C35 -4.949637779264E-01 -4.078658600141E-01  1.914337072192E-01
C36  4.949637779264E-01  4.078658600141E-01 -1.914337072192E-01
C37  4.478910501444E-01 -2.997051573894E-01  1.031642601173E-01
C38 -4.478910501444E-01  2.997051573894E-01 -1.031642601173E-01
C39  4.624305303550E-01 -3.927833658791E-01  4.691008038610E-03
C40 -4.624305303550E-01  3.927833658791E-01 -4.691008038610E-03
C41  4.047797592526E-01 -2.844973581463E-01 -8.520059582046E-02
C42 -4.047797592526E-01  2.844973581463E-01  8.520059582046E-02
C43 -4.192288093521E-01  3.779293930213E-01  1.821960191132E-01
C44  4.192288093521E-01 -3.779293930213E-01 -1.821960191132E-01
C45 -3.598352517837E-01  2.698109545279E-01  2.743690372979E-01
C46  3.598352517837E-01 -2.698109545279E-01 -2.743690372979E-01
C47 -3.755780128159E-01  3.652021657587E-01  3.684751196015E-01
C48  3.755780128159E-01 -3.652021657587E-01 -3.684751196015E-01
H49 -4.614668673225E-01 -3.503909728721E-01  4.531646560905E-01
H50  4.614668673225E-01  3.503909728721E-01 -4.531646560905E-01
H51  4.342654048744E-01 -1.538045380546E-01  2.989464541681E-01
H52 -4.342654048744E-01  1.538045380546E-01 -2.989464541681E-01
H53  3.911686561813E-01 -1.391034218774E-01  1.101574715771E-01
H54 -3.911686561813E-01  1.391034218774E-01 -1.101574715771E-01
H55  3.485016702845E-01 -1.238172122130E-01 -7.806324445491E-02
H56 -3.485016702845E-01  1.238172122130E-01  7.806324445491E-02
H57 -3.015699629385E-01  1.102028495190E-01  2.677247536919E-01
H58  3.015699629385E-01 -1.102028495190E-01 -2.677247536919E-01
H59 -3.298219807820E-01  2.817277296120E-01  4.377810623023E-01
H60  3.298219807820E-01 -2.817277296120E-01 -4.377810623023E-01


#===END

data_OPT_STEP_13

_symmetry_space_group_name_H-M 'P 1'
_cell_length_a      8.33101032
_cell_length_b      6.23577216
_cell_length_c     13.57561852
_cell_angle_alpha  100.135399
_cell_angle_beta  112.728178
_cell_angle_gamma   86.464940

loop_
_atom_site_label
_atom_site_fract_x
_atom_site_fract_y
_atom_site_fract_z
C1  1.188993044138E-01  4.170087974536E-02  3.874076498201E-01
C2 -1.188993044138E-01 -4.170087974536E-02 -3.874076498201E-01
C3  1.412361714919E-01  1.576522932261E-01  3.174592816578E-01
C4 -1.412361714919E-01 -1.576522932261E-01 -3.174592816578E-01
C5  8.089396481322E-02  7.456331042063E-02  2.039495050656E-01
C6 -8.089396481322E-02 -7.456331042063E-02 -2.039495050656E-01
C7  1.037419146980E-01  1.881030584801E-01  1.310061843820E-01
C8 -1.037419146980E-01 -1.881030584801E-01 -1.310061843820E-01
C9  4.343520174447E-02  1.049382388109E-01  1.954420486547E-02
C10 -4.343520174447E-02 -1.049382388109E-01 -1.954420486547E-02
C11  6.497772320594E-02  2.192855166433E-01 -5.510171537524E-02
C12 -6.497772320594E-02 -2.192855166433E-01  5.510171537524E-02
C13 -5.111061783440E-03 -1.358350639136E-01  1.649442925826E-01
C14  5.111061783440E-03  1.358350639136E-01 -1.649442925826E-01
C15 -2.595379197806E-02 -2.512799644743E-01  2.415021551629E-01
C16  2.595379197806E-02  2.512799644743E-01 -2.415021551629E-01
C17  3.491799121691E-02 -1.664176469942E-01  3.489259771885E-01
C18 -3.491799121691E-02  1.664176469942E-01 -3.489259771885E-01
H19  1.649110272071E-01  1.074645291488E-01  4.731278407930E-01
H20 -1.649110272071E-01 -1.074645291488E-01 -4.731278407930E-01
H21  2.036056754831E-01  3.166394388048E-01  3.461728816643E-01
H22 -2.036056754831E-01 -3.166394388048E-01 -3.461728816643E-01
H23  1.676703389426E-01  3.461633567466E-01  1.602504362871E-01
H24 -1.676703389426E-01 -3.461633567466E-01 -1.602504362871E-01
H25  1.300735567259E-01  3.766304121917E-01 -2.584000144710E-02
H26 -1.300735567259E-01 -3.766304121917E-01  2.584000144710E-02
H27 -8.969692865448E-02 -4.092591158864E-01  2.122688239638E-01
H28  8.969692865448E-02  4.092591158864E-01 -2.122688239638E-01
H29  1.892123121688E-02 -2.567302308879E-01  4.059262305284E-01
H30 -1.892123121688E-02  2.567302308879E-01 -4.059262305284E-01
C31 -4.504893810455E-01 -4.234392659492E-01  3.775869970655E-01
C32  4.504893810455E-01  4.234392659492E-01 -3.775869970655E-01
C33  4.910645315359E-01 -3.143588967390E-01  2.918473494584E-01
C34 -4.910645315359E-01  3.143588967390E-01 -2.918473494584E-01
C35 -4.952538074992E-01 -4.080925414224E-01  1.913298461603E-01
C36  4.952538074992E-01  4.080925414224E-01 -1.913298461603E-01
C37  4.463287364927E-01 -3.007342379878E-01  1.025728743755E-01
C38 -4.463287364927E-01  3.007342379878E-01 -1.025728743755E-01
C39  4.610635090350E-01 -3.935132363283E-01  4.223526646585E-03
C40 -4.610635090350E-01  3.935132363283E-01 -4.223526646585E-03
C41  4.019412169345E-01 -2.861825905302E-01 -8.622133063126E-02
C42 -4.019412169345E-01  2.861825905302E-01  8.622133063126E-02
C43 -4.170690735876E-01  3.791645654505E-01  1.829581485298E-01
C44  4.170690735876E-01 -3.791645654505E-01 -1.829581485298E-01
C45 -3.573910334698E-01  2.713074034950E-01  2.754281603465E-01
C46  3.573910334698E-01 -2.713074034950E-01 -2.754281603465E-01
C47 -3.736290358006E-01  3.664946700545E-01  3.693248235586E-01
C48  3.736290358006E-01 -3.664946700545E-01 -3.693248235586E-01
H49 -4.612950140731E-01 -3.503221803641E-01  4.532755268758E-01
H50  4.612950140731E-01  3.503221803641E-01 -4.532755268758E-01
H51  4.335477194301E-01 -1.544316111431E-01  2.984252149923E-01
H52 -4.335477194301E-01  1.544316111431E-01 -2.984252149923E-01
H53  3.878380342789E-01 -1.411844494513E-01  1.089307908931E-01
H54 -3.878380342789E-01  1.411844494513E-01 -1.089307908931E-01
H55  3.436195187842E-01 -1.265850111614E-01 -7.980949482357E-02
H56 -3.436195187842E-01  1.265850111614E-01  7.980949482357E-02
H57 -2.982661834486E-01  1.122595054082E-01  2.692204274135E-01
H58  2.982661834486E-01 -1.122595054082E-01 -2.692204274135E-01
H59 -3.276556221604E-01  2.833002802454E-01  4.388975454628E-01
H60  3.276556221604E-01 -2.833002802454E-01 -4.388975454628E-01


#===END

data_OPT_STEP_14

_symmetry_space_group_name_H-M 'P 1'
_cell_length_a      8.35382716
_cell_length_b      6.24823657
_cell_length_c     13.56950567
_cell_angle_alpha   99.992944
_cell_angle_beta  112.678684
_cell_angle_gamma   86.708790

loop_
_atom_site_label
_atom_site_fract_x
_atom_site_fract_y
_atom_site_fract_z
C1  1.193550093809E-01  4.227874303067E-02  3.875447720305E-01
C2 -1.193550093809E-01 -4.227874303067E-02 -3.875447720305E-01
C3  1.411572918230E-01  1.581209742274E-01  3.172826104329E-01
C4 -1.411572918230E-01 -1.581209742274E-01 -3.172826104329E-01
C5  8.106805473693E-02  7.472740845823E-02  2.039028180588E-01
C6 -8.106805473693E-02 -7.472740845823E-02 -2.039028180588E-01
C7  1.028892515786E-01  1.885287109183E-01  1.306654547162E-01
C8 -1.028892515786E-01 -1.885287109183E-01 -1.306654547162E-01
C9  4.279898683837E-02  1.051364027650E-01  1.934144819873E-02
C10 -4.279898683837E-02 -1.051364027650E-01 -1.934144819873E-02
C11  6.369861229537E-02  2.195002038909E-01 -5.554462130188E-02
C12 -6.369861229537E-02 -2.195002038909E-01  5.554462130188E-02
C13 -4.239288764745E-03 -1.357012583418E-01  1.652792605091E-01
C14  4.239288764745E-03  1.357012583418E-01 -1.652792605091E-01
C15 -2.515452996516E-02 -2.507736723436E-01  2.420874776902E-01
C16  2.515452996516E-02  2.507736723436E-01 -2.420874776902E-01
C17  3.452351418235E-02 -1.649070027905E-01  3.493349560862E-01
C18 -3.452351418235E-02  1.649070027905E-01 -3.493349560862E-01
H19  1.661896708324E-01  1.076301830775E-01  4.732678532440E-01
H20 -1.661896708324E-01 -1.076301830775E-01 -4.732678532440E-01
H21  2.037712935831E-01  3.167672647489E-01  3.457240508869E-01
H22 -2.037712935831E-01 -3.167672647489E-01 -3.457240508869E-01
H23  1.670095719461E-01  3.462791488328E-01  1.596695311268E-01
H24 -1.670095719461E-01 -3.462791488328E-01 -1.596695311268E-01
H25  1.276270928313E-01  3.772449835748E-01 -2.659050463301E-02
H26 -1.276270928313E-01 -3.772449835748E-01  2.659050463301E-02
H27 -8.922445198412E-02 -4.084341412410E-01  2.131049577660E-01
H28  8.922445198412E-02  4.084341412410E-01 -2.131049577660E-01
H29  1.767559178292E-02 -2.542433039262E-01  4.064606326229E-01
H30 -1.767559178292E-02  2.542433039262E-01 -4.064606326229E-01
C31 -4.507667980869E-01 -4.239118238492E-01  3.776497431131E-01
C32  4.507667980869E-01  4.239118238492E-01 -3.776497431131E-01
C33  4.920917643127E-01 -3.149116256909E-01  2.920338356115E-01
C34 -4.920917643127E-01  3.149116256909E-01 -2.920338356115E-01
C35 -4.949283720755E-01 -4.083691278966E-01  1.913857023118E-01
C36  4.949283720755E-01  4.083691278966E-01 -1.913857023118E-01
C37  4.469977050861E-01 -3.014257696198E-01  1.025458956241E-01
C38 -4.469977050861E-01  3.014257696198E-01 -1.025458956241E-01
C39  4.614427158500E-01 -3.938420829280E-01  4.196521292558E-03
C40 -4.614427158500E-01  3.938420829280E-01 -4.196521292558E-03
C41  4.037009751893E-01 -2.863331144704E-01 -8.612744494764E-02
C42 -4.037009751893E-01  2.863331144704E-01  8.612744494764E-02
C43 -4.184344982677E-01  3.790792256534E-01  1.828716813616E-01
C44  4.184344982677E-01 -3.790792256534E-01 -1.828716813616E-01
C45 -3.598059044472E-01  2.712506024254E-01  2.752732139428E-01
C46  3.598059044472E-01 -2.712506024254E-01 -2.752732139428E-01
C47 -3.755279108854E-01  3.664395801277E-01  3.692171837329E-01
C48  3.755279108854E-01 -3.664395801277E-01 -3.692171837329E-01
H49 -4.611816015332E-01 -3.508567940996E-01  4.534273704245E-01
H50  4.611816015332E-01  3.508567940996E-01 -4.534273704245E-01
H51  4.355557876812E-01 -1.552072609877E-01  2.986691845624E-01
H52 -4.355557876812E-01  1.552072609877E-01 -2.986691845624E-01
H53  3.893762124841E-01 -1.422827185814E-01  1.089380082707E-01
H54 -3.893762124841E-01  1.422827185814E-01 -1.089380082707E-01
H55  3.460077679873E-01 -1.270514654689E-01 -7.979695187863E-02
H56 -3.460077679873E-01  1.270514654689E-01  7.979695187863E-02
H57 -3.025208370271E-01  1.120883043746E-01  2.687960855758E-01
H58  3.025208370271E-01 -1.120883043746E-01 -2.687960855758E-01
H59 -3.306501541614E-01  2.832208178886E-01  4.386748366538E-01
H60  3.306501541614E-01 -2.832208178886E-01 -4.386748366538E-01


#===END

data_OPT_STEP_15

_symmetry_space_group_name_H-M 'P 1'
_cell_length_a      8.33037391
_cell_length_b      6.25318481
_cell_length_c     13.56346985
_cell_angle_alpha   99.740040
_cell_angle_beta  112.724238
_cell_angle_gamma   86.724935

loop_
_atom_site_label
_atom_site_fract_x
_atom_site_fract_y
_atom_site_fract_z
C1  1.205714043289E-01  4.104423933469E-02  3.877619175126E-01
C2 -1.205714043289E-01 -4.104423933469E-02 -3.877619175126E-01
C3  1.417531082708E-01  1.572013058529E-01  3.171972700232E-01
C4 -1.417531082708E-01 -1.572013058529E-01 -3.171972700232E-01
C5  8.174517680188E-02  7.394273331687E-02  2.039204790012E-01
C6 -8.174517680188E-02 -7.394273331687E-02 -2.039204790012E-01
C7  1.027118170661E-01  1.882372407092E-01  1.303737063215E-01
C8 -1.027118170661E-01 -1.882372407092E-01 -1.303737063215E-01
C9  4.271116925530E-02  1.050309043737E-01  1.915771292162E-02
C10 -4.271116925530E-02 -1.050309043737E-01 -1.915771292162E-02
C11  6.341705658936E-02  2.194660551126E-01 -5.596762772127E-02
C12 -6.341705658936E-02 -2.194660551126E-01  5.596762772127E-02
C13 -3.274349313437E-03 -1.363158884875E-01  1.656613910511E-01
C14  3.274349313437E-03  1.363158884875E-01 -1.656613910511E-01
C15 -2.363371997298E-02 -2.516970034550E-01  2.427732079577E-01
C16  2.363371997298E-02  2.516970034550E-01 -2.427732079577E-01
C17  3.630517914601E-02 -1.661993055596E-01  3.499544195838E-01
C18 -3.630517914601E-02  1.661993055596E-01 -3.499544195838E-01
H19  1.677854850070E-01  1.059895857260E-01  4.734313776111E-01
H20 -1.677854850070E-01 -1.059895857260E-01 -4.734313776111E-01
H21  2.040453504753E-01  3.157918452632E-01  3.453236510629E-01
H22 -2.040453504753E-01 -3.157918452632E-01 -3.453236510629E-01
H23  1.674285970217E-01  3.453828247123E-01  1.591774683730E-01
H24 -1.674285970217E-01 -3.453828247123E-01 -1.591774683730E-01
H25  1.272551727018E-01  3.769992026865E-01 -2.728135018936E-02
H26 -1.272551727018E-01 -3.769992026865E-01  2.728135018936E-02
H27 -8.832645354396E-02 -4.087627596112E-01  2.139681227104E-01
H28  8.832645354396E-02  4.087627596112E-01 -2.139681227104E-01
H29  1.991327117087E-02 -2.557124768752E-01  4.073021455921E-01
H30 -1.991327117087E-02  2.557124768752E-01 -4.073021455921E-01
C31 -4.503159350662E-01 -4.235289231700E-01  3.777879291447E-01
C32  4.503159350662E-01  4.235289231700E-01 -3.777879291447E-01
C33  4.915165423293E-01 -3.152021771567E-01  2.916546928269E-01
C34 -4.915165423293E-01  3.152021771567E-01 -2.916546928269E-01
C35 -4.948468022697E-01 -4.082746615340E-01  1.913134403309E-01
C36  4.948468022697E-01  4.082746615340E-01 -1.913134403309E-01
C37  4.466648483784E-01 -3.016404297564E-01  1.021058106244E-01
C38 -4.466648483784E-01  3.016404297564E-01 -1.021058106244E-01
C39  4.612337778609E-01 -3.940154934220E-01  3.918493655836E-03
C40 -4.612337778609E-01  3.940154934220E-01 -3.918493655836E-03
C41  4.031257678737E-01 -2.867794232124E-01 -8.675594993703E-02
C42 -4.031257678737E-01  2.867794232124E-01  8.675594993703E-02
C43 -4.176944586843E-01  3.796103285762E-01  1.834022507728E-01
C44  4.176944586843E-01 -3.796103285762E-01 -1.834022507728E-01
C45 -3.579069506883E-01  2.724759050848E-01  2.763227997474E-01
C46  3.579069506883E-01 -2.724759050848E-01 -2.763227997474E-01
C47 -3.735257651186E-01  3.676982495563E-01  3.701624242877E-01
C48  3.735257651186E-01 -3.676982495563E-01 -3.701624242877E-01
H49 -4.614613231655E-01 -3.508114961659E-01  4.532795202424E-01
H50  4.614613231655E-01  3.508114961659E-01 -4.532795202424E-01
H51  4.338429890405E-01 -1.561433585883E-01  2.976904787552E-01
H52 -4.338429890405E-01  1.561433585883E-01 -2.976904787552E-01
H53  3.890949413565E-01 -1.425540621558E-01  1.081678845886E-01
H54 -3.890949413565E-01  1.425540621558E-01 -1.081678845886E-01
H55  3.451492431774E-01 -1.277070172238E-01 -8.082647493552E-02
H56 -3.451492431774E-01  1.277070172238E-01  8.082647493552E-02
H57 -2.999939867646E-01  1.137117209425E-01  2.703216731504E-01
H58  2.999939867646E-01 -1.137117209425E-01 -2.703216731504E-01
H59 -3.274451636923E-01  2.851574109095E-01  4.401017603296E-01
H60  3.274451636923E-01 -2.851574109095E-01 -4.401017603296E-01


#===END

data_OPT_STEP_16

_symmetry_space_group_name_H-M 'P 1'
_cell_length_a      8.34829845
_cell_length_b      6.24983830
_cell_length_c     13.56748218
_cell_angle_alpha   99.935602
_cell_angle_beta  112.679436
_cell_angle_gamma   86.707447

loop_
_atom_site_label
_atom_site_fract_x
_atom_site_fract_y
_atom_site_fract_z
C1  1.196080233458E-01  4.217004721705E-02  3.876103995542E-01
C2 -1.196080233458E-01 -4.217004721705E-02 -3.876103995542E-01
C3  1.412816982607E-01  1.580187325544E-01  3.172588078938E-01
C4 -1.412816982607E-01 -1.580187325544E-01 -3.172588078938E-01
C5  8.122333477329E-02  7.461473860246E-02  2.039084873572E-01
C6 -8.122333477329E-02 -7.461473860246E-02 -2.039084873572E-01
C7  1.027749482565E-01  1.885210176136E-01  1.305724605508E-01
C8 -1.027749482565E-01 -1.885210176136E-01 -1.305724605508E-01
C9  4.278835701110E-02  1.050914579477E-01  1.928611183964E-02
C10 -4.278835701110E-02 -1.050914579477E-01 -1.928611183964E-02
C11  6.370675359504E-02  2.193752740691E-01 -5.566920341614E-02
C12 -6.370675359504E-02 -2.193752740691E-01  5.566920341614E-02
C13 -4.023108070847E-03 -1.357405736979E-01  1.653939702050E-01
C14  4.023108070847E-03  1.357405736979E-01 -1.653939702050E-01
C15 -2.475660116844E-02 -2.508599965365E-01  2.423002418084E-01
C16  2.475660116844E-02  2.508599965365E-01 -2.423002418084E-01
C17  3.497168067483E-02 -1.650422867678E-01  3.495268876697E-01
C18 -3.497168067483E-02  1.650422867678E-01 -3.495268876697E-01
H19  1.665395534023E-01  1.074421465334E-01  4.733149958399E-01
H20 -1.665395534023E-01 -1.074421465334E-01 -4.733149958399E-01
H21  2.038573049857E-01  3.166074513976E-01  3.456081106789E-01
H22 -2.038573049857E-01 -3.166074513976E-01 -3.456081106789E-01
H23  1.670627661747E-01  3.460893172173E-01  1.595118135558E-01
H24 -1.670627661747E-01 -3.460893172173E-01 -1.595118135558E-01
H25  1.276576298199E-01  3.770231099753E-01 -2.679326287396E-02
H26 -1.276576298199E-01 -3.770231099753E-01  2.679326287396E-02
H27 -8.900140921846E-02 -4.083453321353E-01  2.133721222200E-01
H28  8.900140921846E-02  4.083453321353E-01 -2.133721222200E-01
H29  1.825259415748E-02 -2.543888474890E-01  4.067201902843E-01
H30 -1.825259415748E-02  2.543888474890E-01 -4.067201902843E-01
C31 -4.506498321012E-01 -4.238447412201E-01  3.776958067423E-01
C32  4.506498321012E-01  4.238447412201E-01 -3.776958067423E-01
C33  4.918364975614E-01 -3.150733016977E-01  2.919359114828E-01
C34 -4.918364975614E-01  3.150733016977E-01 -2.919359114828E-01
C35 -4.949426873039E-01 -4.083819397157E-01  1.913711273287E-01
C36  4.949426873039E-01  4.083819397157E-01 -1.913711273287E-01
C37  4.468872638279E-01 -3.015071400848E-01  1.024512232928E-01
C38 -4.468872638279E-01  3.015071400848E-01 -1.024512232928E-01
C39  4.613805026516E-01 -3.938929963866E-01  4.135992791206E-03
C40 -4.613805026516E-01  3.938929963866E-01 -4.135992791206E-03
C41  4.035186083887E-01 -2.864658011787E-01 -8.627153778690E-02
C42 -4.035186083887E-01  2.864658011787E-01  8.627153778690E-02
C43 -4.182320307462E-01  3.792074825932E-01  1.829973737986E-01
C44  4.182320307462E-01 -3.792074825932E-01 -1.829973737986E-01
C45 -3.592573839683E-01  2.715776795734E-01  2.755308352358E-01
C46  3.592573839683E-01 -2.715776795734E-01 -2.755308352358E-01
C47 -3.749137551605E-01  3.667776681964E-01  3.694666713295E-01
C48  3.749137551605E-01 -3.667776681964E-01 -3.694666713295E-01
H49 -4.612442946863E-01 -3.508710198578E-01  4.534108140361E-01
H50  4.612442946863E-01  3.508710198578E-01 -4.534108140361E-01
H51  4.349372242019E-01 -1.555737746411E-01  2.984197442549E-01
H52 -4.349372242019E-01  1.555737746411E-01 -2.984197442549E-01
H53  3.893210596750E-01 -1.423599323068E-01  1.087880270416E-01
H54 -3.893210596750E-01  1.423599323068E-01 -1.087880270416E-01
H55  3.457423029115E-01 -1.272481226484E-01 -8.002769588917E-02
H56 -3.457423029115E-01  1.272481226484E-01  8.002769588917E-02
H57 -3.018019787873E-01  1.125242319755E-01  2.691574249129E-01
H58  3.018019787873E-01 -1.125242319755E-01 -2.691574249129E-01
H59 -3.295940459118E-01  2.837956186683E-01  4.390663978783E-01
H60  3.295940459118E-01 -2.837956186683E-01 -4.390663978783E-01


#===END

data_OPT_STEP_17

_symmetry_space_group_name_H-M 'P 1'
_cell_length_a      8.35940142
_cell_length_b      6.24647592
_cell_length_c     13.56128906
_cell_angle_alpha   99.839955
_cell_angle_beta  112.598786
_cell_angle_gamma   86.880687

loop_
_atom_site_label
_atom_site_fract_x
_atom_site_fract_y
_atom_site_fract_z
C1  1.190506636138E-01  4.256423812061E-02  3.876805097050E-01
C2 -1.190506636138E-01 -4.256423812061E-02 -3.876805097050E-01
C3  1.411733724125E-01  1.582690797271E-01  3.172663832024E-01
C4 -1.411733724125E-01 -1.582690797271E-01 -3.172663832024E-01
C5  8.095265964038E-02  7.485394663346E-02  2.039145160749E-01
C6 -8.095265964038E-02 -7.485394663346E-02 -2.039145160749E-01
C7  1.025989741913E-01  1.888344858548E-01  1.304569060784E-01
C8 -1.025989741913E-01 -1.888344858548E-01 -1.304569060784E-01
C9  4.314969186499E-02  1.050078463387E-01  1.923518361739E-02
C10 -4.314969186499E-02 -1.050078463387E-01 -1.923518361739E-02
C11  6.462793701093E-02  2.190633469300E-01 -5.580406885788E-02
C12 -6.462793701093E-02 -2.190633469300E-01  5.580406885788E-02
C13 -4.851640088440E-03 -1.353965637349E-01  1.655007045674E-01
C14  4.851640088440E-03  1.353965637349E-01 -1.655007045674E-01
C15 -2.520162951302E-02 -2.508918370842E-01  2.425587342249E-01
C16  2.520162951302E-02  2.508918370842E-01 -2.425587342249E-01
C17  3.463149170294E-02 -1.650828685659E-01  3.497575320226E-01
C18 -3.463149170294E-02  1.650828685659E-01 -3.497575320226E-01
H19  1.657482724162E-01  1.080630235451E-01  4.733251323539E-01
H20 -1.657482724162E-01 -1.080630235451E-01 -4.733251323539E-01
H21  2.039260569019E-01  3.168857099314E-01  3.454997080351E-01
H22 -2.039260569019E-01 -3.168857099314E-01 -3.454997080351E-01
H23  1.666920201368E-01  3.466556991319E-01  1.592453284566E-01
H24 -1.666920201368E-01 -3.466556991319E-01 -1.592453284566E-01
H25  1.291868242023E-01  3.765435213104E-01 -2.700262384235E-02
H26 -1.291868242023E-01 -3.765435213104E-01  2.700262384235E-02
H27 -8.923073210208E-02 -4.085477048626E-01  2.137545665827E-01
H28  8.923073210208E-02  4.085477048626E-01 -2.137545665827E-01
H29  1.772581692211E-02 -2.544253880957E-01  4.070150067555E-01
H30 -1.772581692211E-02  2.544253880957E-01 -4.070150067555E-01
C31 -4.507911259583E-01 -4.240689291015E-01  3.777307028568E-01
C32  4.507911259583E-01  4.240689291015E-01 -3.777307028568E-01
C33  4.911324237681E-01 -3.155996681353E-01  2.917683598558E-01
C34 -4.911324237681E-01  3.155996681353E-01 -2.917683598558E-01
C35 -4.953000993574E-01 -4.086575925918E-01  1.913076103684E-01
C36  4.953000993574E-01  4.086575925918E-01 -1.913076103684E-01
C37  4.473327617139E-01 -3.014410635245E-01  1.024849511778E-01
C38 -4.473327617139E-01  3.014410635245E-01 -1.024849511778E-01
C39  4.617930391813E-01 -3.937820972969E-01  4.176405266413E-03
C40 -4.617930391813E-01  3.937820972969E-01 -4.176405266413E-03
C41  4.035487361528E-01 -2.866885018302E-01 -8.638583227826E-02
C42 -4.035487361528E-01  2.866885018302E-01  8.638583227826E-02
C43 -4.186000091791E-01  3.790994214636E-01  1.830321948327E-01
C44  4.186000091791E-01 -3.790994214636E-01 -1.830321948327E-01
C45 -3.598245964584E-01  2.714220446309E-01  2.756024664568E-01
C46  3.598245964584E-01 -2.714220446309E-01 -2.756024664568E-01
C47 -3.754272298215E-01  3.664364715074E-01  3.695171402781E-01
C48  3.754272298215E-01 -3.664364715074E-01 -3.695171402781E-01
H49 -4.610460089540E-01 -3.509965524592E-01  4.534952848317E-01
H50  4.610460089540E-01  3.509965524592E-01 -4.534952848317E-01
H51  4.344157033032E-01 -1.561574646458E-01  2.982018605822E-01
H52 -4.344157033032E-01  1.561574646458E-01 -2.982018605822E-01
H53  3.902838096999E-01 -1.421386066957E-01  1.088630262098E-01
H54 -3.902838096999E-01  1.421386066957E-01 -1.088630262098E-01
H55  3.460412552075E-01 -1.275344611621E-01 -8.014087843334E-02
H56 -3.460412552075E-01  1.275344611621E-01  8.014087843334E-02
H57 -3.020801756486E-01  1.126117976311E-01  2.693632138081E-01
H58  3.020801756486E-01 -1.126117976311E-01 -2.693632138081E-01
H59 -3.295988722205E-01  2.837447650794E-01  4.392741445470E-01
H60  3.295988722205E-01 -2.837447650794E-01 -4.392741445470E-01


#===END

data_OPT_STEP_18

_symmetry_space_group_name_H-M 'P 1'
_cell_length_a      8.35154177
_cell_length_b      6.24457758
_cell_length_c     13.55629400
_cell_angle_alpha   99.802089
_cell_angle_beta  112.575878
_cell_angle_gamma   86.715449

loop_
_atom_site_label
_atom_site_fract_x
_atom_site_fract_y
_atom_site_fract_z
C1  1.199826922345E-01  4.293915130921E-02  3.879486698013E-01
C2 -1.199826922345E-01 -4.293915130921E-02 -3.879486698013E-01
C3  1.416667404486E-01  1.585330463110E-01  3.173067187524E-01
C4 -1.416667404486E-01 -1.585330463110E-01 -3.173067187524E-01
C5  8.146924202285E-02  7.493547450959E-02  2.039934717558E-01
C6 -8.146924202285E-02 -7.493547450959E-02 -2.039934717558E-01
C7  1.029659907516E-01  1.886076430679E-01  1.303119312928E-01
C8 -1.029659907516E-01 -1.886076430679E-01 -1.303119312928E-01
C9  4.313754207146E-02  1.048908951693E-01  1.909367723352E-02
C10 -4.313754207146E-02 -1.048908951693E-01 -1.909367723352E-02
C11  6.423017217030E-02  2.187964334924E-01 -5.619213172541E-02
C12 -6.423017217030E-02 -2.187964334924E-01  5.619213172541E-02
C13 -4.339719221628E-03 -1.350583864386E-01  1.658404112305E-01
C14  4.339719221628E-03  1.350583864386E-01 -1.658404112305E-01
C15 -2.450691327089E-02 -2.502060061668E-01  2.431064041328E-01
C16  2.450691327089E-02  2.502060061668E-01 -2.431064041328E-01
C17  3.572232052522E-02 -1.645701155151E-01  3.502829577257E-01
C18 -3.572232052522E-02  1.645701155151E-01 -3.502829577257E-01
H19  1.670099203573E-01  1.083035912457E-01  4.735733709740E-01
H20 -1.670099203573E-01 -1.083035912457E-01 -4.735733709740E-01
H21  2.041162106779E-01  3.170940323936E-01  3.453268614865E-01
H22 -2.041162106779E-01 -3.170940323936E-01 -3.453268614865E-01
H23  1.672004578698E-01  3.460957940820E-01  1.589195478442E-01
H24 -1.672004578698E-01 -3.460957940820E-01 -1.589195478442E-01
H25  1.287295502334E-01  3.761118467297E-01 -2.760183011681E-02
H26 -1.287295502334E-01 -3.761118467297E-01  2.760183011681E-02
H27 -8.863839071696E-02 -4.075731978063E-01  2.144671767855E-01
H28  8.863839071696E-02  4.075731978063E-01 -2.144671767855E-01
H29  1.912295757799E-02 -2.538524928197E-01  4.077017588562E-01
H30 -1.912295757799E-02  2.538524928197E-01 -4.077017588562E-01
C31 -4.509247189650E-01 -4.241276502830E-01  3.777793706198E-01
C32  4.509247189650E-01  4.241276502830E-01 -3.777793706198E-01
C33  4.906389092431E-01 -3.154643114376E-01  2.916998995812E-01
C34 -4.906389092431E-01  3.154643114376E-01 -2.916998995812E-01
C35 -4.956906934291E-01 -4.087086897787E-01  1.912576138381E-01
C36  4.956906934291E-01  4.087086897787E-01 -1.912576138381E-01
C37  4.467918251521E-01 -3.013130596520E-01  1.023652129829E-01
C38 -4.467918251521E-01  3.013130596520E-01 -1.023652129829E-01
C39  4.617327173962E-01 -3.936105821450E-01  4.157721896490E-03
C40 -4.617327173962E-01  3.936105821450E-01 -4.157721896490E-03
C41  4.036498479364E-01 -2.861614731705E-01 -8.640251587365E-02
C42 -4.036498479364E-01  2.861614731705E-01  8.640251587365E-02
C43 -4.187512801627E-01  3.787150014992E-01  1.830624829044E-01
C44  4.187512801627E-01 -3.787150014992E-01 -1.830624829044E-01
C45 -3.594838115985E-01  2.710318064657E-01  2.757838736638E-01
C46  3.594838115985E-01 -2.710318064657E-01 -2.757838736638E-01
C47 -3.753077591819E-01  3.660008164051E-01  3.696422484350E-01
C48  3.753077591819E-01 -3.660008164051E-01 -3.696422484350E-01
H49 -4.613544373046E-01 -3.510423930968E-01  4.535044080067E-01
H50  4.613544373046E-01  3.510423930968E-01 -4.535044080067E-01
H51  4.336643881437E-01 -1.558447590349E-01  2.980382075300E-01
H52 -4.336643881437E-01  1.558447590349E-01 -2.980382075300E-01
H53  3.892712742121E-01 -1.418943543026E-01  1.086151434285E-01
H54 -3.892712742121E-01  1.418943543026E-01 -1.086151434285E-01
H55  3.462116213110E-01 -1.267106123681E-01 -8.014576573397E-02
H56 -3.462116213110E-01  1.267106123681E-01  8.014576573397E-02
H57 -3.009967645719E-01  1.122524704071E-01  2.697327796172E-01
H58  3.009967645719E-01 -1.122524704071E-01 -2.697327796172E-01
H59 -3.293026455667E-01  2.831841356341E-01  4.394561092174E-01
H60  3.293026455667E-01 -2.831841356341E-01 -4.394561092174E-01


#===END

data_OPT_STEP_19

_symmetry_space_group_name_H-M 'P 1'
_cell_length_a      8.34479204
_cell_length_b      6.24153478
_cell_length_c     13.54793319
_cell_angle_alpha   99.648434
_cell_angle_beta  112.453689
_cell_angle_gamma   86.904949

loop_
_atom_site_label
_atom_site_fract_x
_atom_site_fract_y
_atom_site_fract_z
C1  1.195847244968E-01  4.259348361901E-02  3.879128227492E-01
C2 -1.195847244968E-01 -4.259348361901E-02 -3.879128227492E-01
C3  1.412538011098E-01  1.585044128430E-01  3.171368461832E-01
C4 -1.412538011098E-01 -1.585044128430E-01 -3.171368461832E-01
C5  8.113883196731E-02  7.490413295223E-02  2.039090561373E-01
C6 -8.113883196731E-02 -7.490413295223E-02 -2.039090561373E-01
C7  1.030761669653E-01  1.885862524587E-01  1.301206791316E-01
C8 -1.030761669653E-01 -1.885862524587E-01 -1.301206791316E-01
C9  4.319517723528E-02  1.049864535041E-01  1.897635650794E-02
C10 -4.319517723528E-02 -1.049864535041E-01 -1.897635650794E-02
C11  6.491009004141E-02  2.187789834554E-01 -5.640555700938E-02
C12 -6.491009004141E-02 -2.187789834554E-01  5.640555700938E-02
C13 -4.595265242943E-03 -1.353609974442E-01  1.660013404969E-01
C14  4.595265242943E-03  1.353609974442E-01 -1.660013404969E-01
C15 -2.499901513181E-02 -2.506537857993E-01  2.433821169117E-01
C16  2.499901513181E-02  2.506537857993E-01 -2.433821169117E-01
C17  3.553165490229E-02 -1.653106674294E-01  3.504868163586E-01
C18 -3.553165490229E-02  1.653106674294E-01 -3.504868163586E-01
H19  1.666783496167E-01  1.078809774673E-01  4.734861372444E-01
H20 -1.666783496167E-01 -1.078809774673E-01 -4.734861372444E-01
H21  2.037849818071E-01  3.171817808725E-01  3.450060288196E-01
H22 -2.037849818071E-01 -3.171817808725E-01 -3.450060288196E-01
H23  1.672433433288E-01  3.462777740713E-01  1.585449450190E-01
H24 -1.672433433288E-01 -3.462777740713E-01 -1.585449450190E-01
H25  1.300824789177E-01  3.758881508846E-01 -2.793104871110E-02
H26 -1.300824789177E-01 -3.758881508846E-01  2.793104871110E-02
H27 -8.905219815901E-02 -4.081527604508E-01  2.149240624660E-01
H28  8.905219815901E-02  4.081527604508E-01 -2.149240624660E-01
H29  1.960267165244E-02 -2.552103318671E-01  4.080613841278E-01
H30 -1.960267165244E-02  2.552103318671E-01 -4.080613841278E-01
C31 -4.504578166022E-01 -4.240483575988E-01  3.779672707300E-01
C32  4.504578166022E-01  4.240483575988E-01 -3.779672707300E-01
C33  4.913173647376E-01 -3.153207180576E-01  2.918309200317E-01
C34 -4.913173647376E-01  3.153207180576E-01 -2.918309200317E-01
C35 -4.949208358957E-01 -4.084269076753E-01  1.914385889034E-01
C36  4.949208358957E-01  4.084269076753E-01 -1.914385889034E-01
C37  4.470622675806E-01 -3.013612176460E-01  1.023385433354E-01
C38 -4.470622675806E-01  3.013612176460E-01 -1.023385433354E-01
C39  4.617122135919E-01 -3.937115810462E-01  4.082144530984E-03
C40 -4.617122135919E-01  3.937115810462E-01 -4.082144530984E-03
C41  4.037523849440E-01 -2.862545341664E-01 -8.654723393118E-02
C42 -4.037523849440E-01  2.862545341664E-01  8.654723393118E-02
C43 -4.184423850448E-01  3.789284376291E-01  1.832818445297E-01
C44  4.184423850448E-01 -3.789284376291E-01 -1.832818445297E-01
C45 -3.590957681290E-01  2.713342765210E-01  2.761293533441E-01
C46  3.590957681290E-01 -2.713342765210E-01 -2.761293533441E-01
C47 -3.748291972630E-01  3.662304399644E-01  3.699748482379E-01
C48  3.748291972630E-01 -3.662304399644E-01 -3.699748482379E-01
H49 -4.608931074073E-01 -3.510575702569E-01  4.536580717021E-01
H50  4.608931074073E-01  3.510575702569E-01 -4.536580717021E-01
H51  4.340004002816E-01 -1.560149459800E-01  2.979826213645E-01
H52 -4.340004002816E-01  1.560149459800E-01 -2.979826213645E-01
H53  3.895563063576E-01 -1.420561748102E-01  1.084803696053E-01
H54 -3.895563063576E-01  1.420561748102E-01 -1.084803696053E-01
H55  3.464751012319E-01 -1.268725363445E-01 -8.035643590623E-02
H56 -3.464751012319E-01  1.268725363445E-01  8.035643590623E-02
H57 -3.009875203452E-01  1.124877472621E-01  2.701023438883E-01
H58  3.009875203452E-01 -1.124877472621E-01 -2.701023438883E-01
H59 -3.290349423972E-01  2.833595446022E-01  4.398272078376E-01
H60  3.290349423972E-01 -2.833595446022E-01 -4.398272078376E-01


#===END

data_OPT_STEP_20

_symmetry_space_group_name_H-M 'P 1'
_cell_length_a      8.34695569
_cell_length_b      6.24098426
_cell_length_c     13.54674446
_cell_angle_alpha   99.648159
_cell_angle_beta  112.442184
_cell_angle_gamma   86.868414

loop_
_atom_site_label
_atom_site_fract_x
_atom_site_fract_y
_atom_site_fract_z
C1  1.197253840415E-01  4.290093852879E-02  3.879680220811E-01
C2 -1.197253840415E-01 -4.290093852879E-02 -3.879680220811E-01
C3  1.413730025022E-01  1.586801913597E-01  3.171357757593E-01
C4 -1.413730025022E-01 -1.586801913597E-01 -3.171357757593E-01
C5  8.120693067828E-02  7.504108302967E-02  2.039181464937E-01
C6 -8.120693067828E-02 -7.504108302967E-02 -2.039181464937E-01
C7  1.030910185386E-01  1.886099166419E-01  1.300708980139E-01
C8 -1.030910185386E-01 -1.886099166419E-01 -1.300708980139E-01
C9  4.317416041360E-02  1.049583779087E-01  1.893754447994E-02
C10 -4.317416041360E-02 -1.049583779087E-01 -1.893754447994E-02
C11  6.483513127939E-02  2.186394467803E-01 -5.650294527704E-02
C12 -6.483513127939E-02 -2.186394467803E-01  5.650294527704E-02
C13 -4.499110881203E-03 -1.351676715390E-01  1.660850193022E-01
C14  4.499110881203E-03  1.351676715390E-01 -1.660850193022E-01
C15 -2.484388409131E-02 -2.503396372733E-01  2.435284013077E-01
C16  2.484388409131E-02  2.503396372733E-01 -2.435284013077E-01
C17  3.568245372505E-02 -1.649256487530E-01  3.506173261883E-01
C18 -3.568245372505E-02  1.649256487530E-01 -3.506173261883E-01
H19  1.668002503744E-01  1.082456891092E-01  4.735263740889E-01
H20 -1.668002503744E-01 -1.082456891092E-01 -4.735263740889E-01
H21  2.038938526814E-01  3.173078011593E-01  3.449496622315E-01
H22 -2.038938526814E-01 -3.173078011593E-01 -3.449496622315E-01
H23  1.672416987514E-01  3.462525732662E-01  1.584373973426E-01
H24 -1.672416987514E-01 -3.462525732662E-01 -1.584373973426E-01
H25  1.298962988903E-01  3.757563567289E-01 -2.809388998587E-02
H26 -1.298962988903E-01 -3.757563567289E-01  2.809388998587E-02
H27 -8.888854194524E-02 -4.078035894981E-01  2.151235240327E-01
H28  8.888854194524E-02  4.078035894981E-01 -2.151235240327E-01
H29  1.977234303111E-02 -2.547313844867E-01  4.082359740084E-01
H30 -1.977234303111E-02  2.547313844867E-01 -4.082359740084E-01
C31 -4.504951236310E-01 -4.240913830257E-01  3.779854207149E-01
C32  4.504951236310E-01  4.240913830257E-01 -3.779854207149E-01
C33  4.912761151346E-01 -3.153180094922E-01  2.918488304965E-01
C34 -4.912761151346E-01  3.153180094922E-01 -2.918488304965E-01
C35 -4.949097988945E-01 -4.084178288788E-01  1.914570512593E-01
C36  4.949097988945E-01  4.084178288788E-01 -1.914570512593E-01
C37  4.470447852047E-01 -3.013159440964E-01  1.023508352695E-01
C38 -4.470447852047E-01  3.013159440964E-01 -1.023508352695E-01
C39  4.616612832822E-01 -3.937009791579E-01  4.076094999107E-03
C40 -4.616612832822E-01  3.937009791579E-01 -4.076094999107E-03
C41  4.036600958871E-01 -2.862188468018E-01 -8.656326624197E-02
C42 -4.036600958871E-01  2.862188468018E-01  8.656326624197E-02
C43 -4.183860307015E-01  3.788907935857E-01  1.832986560013E-01
C44  4.183860307015E-01 -3.788907935857E-01 -1.832986560013E-01
C45 -3.590486888125E-01  2.712474987452E-01  2.761451296758E-01
C46  3.590486888125E-01 -2.712474987452E-01 -2.761451296758E-01
C47 -3.748073350217E-01  3.661463932498E-01  3.699932429260E-01
C48  3.748073350217E-01 -3.661463932498E-01 -3.699932429260E-01
H49 -4.609388318693E-01 -3.510815932357E-01  4.536823057645E-01
H50  4.609388318693E-01  3.510815932357E-01 -4.536823057645E-01
H51  4.338677838105E-01 -1.560072102830E-01  2.979904962430E-01
H52 -4.338677838105E-01  1.560072102830E-01 -2.979904962430E-01
H53  3.895564562502E-01 -1.419481276193E-01  1.085058426194E-01
H54 -3.895564562502E-01  1.419481276193E-01 -1.085058426194E-01
H55  3.462701868847E-01 -1.268428289781E-01 -8.038989133344E-02
H56 -3.462701868847E-01  1.268428289781E-01  8.038989133344E-02
H57 -3.009485288887E-01  1.123460004929E-01  2.701052214118E-01
H58  3.009485288887E-01 -1.123460004929E-01 -2.701052214118E-01
H59 -3.290460848974E-01  2.832251980791E-01  4.398372665882E-01
H60  3.290460848974E-01 -2.832251980791E-01 -4.398372665882E-01


#===END

data_OPT_STEP_21

_symmetry_space_group_name_H-M 'P 1'
_cell_length_a      8.34184234
_cell_length_b      6.24130109
_cell_length_c     13.54161195
_cell_angle_alpha   99.565081
_cell_angle_beta  112.386181
_cell_angle_gamma   86.915235

loop_
_atom_site_label
_atom_site_fract_x
_atom_site_fract_y
_atom_site_fract_z
C1  1.196969211343E-01  4.282702759329E-02  3.879757448990E-01
C2 -1.196969211343E-01 -4.282702759329E-02 -3.879757448990E-01
C3  1.413472623243E-01  1.585969523880E-01  3.170320705983E-01
C4 -1.413472623243E-01 -1.585969523880E-01 -3.170320705983E-01
C5  8.123570757751E-02  7.496349654812E-02  2.038799484118E-01
C6 -8.123570757751E-02 -7.496349654812E-02 -2.038799484118E-01
C7  1.030870577751E-01  1.885438635818E-01  1.299219179849E-01
C8 -1.030870577751E-01 -1.885438635818E-01 -1.299219179849E-01
C9  4.316935472103E-02  1.049294332839E-01  1.885196684436E-02
C10 -4.316935472103E-02 -1.049294332839E-01 -1.885196684436E-02
C11  6.464121188662E-02  2.187331723593E-01 -5.671063858403E-02
C12 -6.464121188662E-02 -2.187331723593E-01  5.671063858403E-02
C13 -4.461459219530E-03 -1.351995125256E-01  1.662237527510E-01
C14  4.461459219530E-03  1.351995125256E-01 -1.662237527510E-01
C15 -2.483544783698E-02 -2.503503517893E-01  2.437805224110E-01
C16  2.483544783698E-02  2.503503517893E-01 -2.437805224110E-01
C17  3.559641495854E-02 -1.648996233457E-01  3.507989618775E-01
C18 -3.559641495854E-02  1.648996233457E-01 -3.507989618775E-01
H19  1.667104899760E-01  1.081780768490E-01  4.734922578237E-01
H20 -1.667104899760E-01 -1.081780768490E-01 -4.734922578237E-01
H21  2.037892402145E-01  3.172479092469E-01  3.446983134621E-01
H22 -2.037892402145E-01 -3.172479092469E-01 -3.446983134621E-01
H23  1.673162668370E-01  3.461151064862E-01  1.581616126600E-01
H24 -1.673162668370E-01 -3.461151064862E-01 -1.581616126600E-01
H25  1.292101767682E-01  3.760907115494E-01 -2.847334622738E-02
H26 -1.292101767682E-01 -3.760907115494E-01  2.847334622738E-02
H27 -8.896406541620E-02 -4.077512260731E-01  2.155072349357E-01
H28  8.896406541620E-02  4.077512260731E-01 -2.155072349357E-01
H29  1.959018954190E-02 -2.546120139213E-01  4.085092357270E-01
H30 -1.959018954190E-02  2.546120139213E-01 -4.085092357270E-01
C31 -4.503910594072E-01 -4.241287628969E-01  3.780682799053E-01
C32  4.503910594072E-01  4.241287628969E-01 -3.780682799053E-01
C33  4.913468611424E-01 -3.154453549667E-01  2.918665461618E-01
C34 -4.913468611424E-01  3.154453549667E-01 -2.918665461618E-01
C35 -4.949772312369E-01 -4.085398395661E-01  1.914495457481E-01
C36  4.949772312369E-01  4.085398395661E-01 -1.914495457481E-01
C37  4.470794542124E-01 -3.014077334548E-01  1.023072306494E-01
C38 -4.470794542124E-01  3.014077334548E-01 -1.023072306494E-01
C39  4.617091602719E-01 -3.937272521287E-01  4.047534216832E-03
C40 -4.617091602719E-01  3.937272521287E-01 -4.047534216832E-03
C41  4.036984945625E-01 -2.862626286910E-01 -8.665558589285E-02
C42 -4.036984945625E-01  2.862626286910E-01  8.665558589285E-02
C43 -4.183489717728E-01  3.789203766542E-01  1.833920963933E-01
C44  4.183489717728E-01 -3.789203766542E-01 -1.833920963933E-01
C45 -3.588581121890E-01  2.713945010721E-01  2.763369294474E-01
C46  3.588581121890E-01 -2.713945010721E-01 -2.763369294474E-01
C47 -3.745817075923E-01  3.662995589558E-01  3.701854709676E-01
C48  3.745817075923E-01 -3.662995589558E-01 -3.701854709676E-01
H49 -4.608809524635E-01 -3.511601528921E-01  4.537451932622E-01
H50  4.608809524635E-01  3.511601528921E-01 -4.537451932622E-01
H51  4.339607449068E-01 -1.561863096527E-01  2.979586625026E-01
H52 -4.339607449068E-01  1.561863096527E-01 -2.979586625026E-01
H53  3.896987203733E-01 -1.420626813398E-01  1.084297444397E-01
H54 -3.896987203733E-01  1.420626813398E-01 -1.084297444397E-01
H55  3.462067875323E-01 -1.269843739385E-01 -8.056890793398E-02
H56 -3.462067875323E-01  1.269843739385E-01  8.056890793398E-02
H57 -3.006474360732E-01  1.126271492507E-01  2.703793881150E-01
H58  3.006474360732E-01 -1.126271492507E-01 -2.703793881150E-01
H59 -3.288341725457E-01  2.834107103856E-01  4.400841287908E-01
H60  3.288341725457E-01 -2.834107103856E-01 -4.400841287908E-01


#===END

data_OPT_STEP_22

_symmetry_space_group_name_H-M 'P 1'
_cell_length_a      8.34669495
_cell_length_b      6.24203563
_cell_length_c     13.53827142
_cell_angle_alpha   99.545537
_cell_angle_beta  112.353907
_cell_angle_gamma   86.882074

loop_
_atom_site_label
_atom_site_fract_x
_atom_site_fract_y
_atom_site_fract_z
C1  1.200294133967E-01  4.322601391887E-02  3.880637115522E-01
C2 -1.200294133967E-01 -4.322601391887E-02 -3.880637115522E-01
C3  1.415587562675E-01  1.588063408770E-01  3.169982374279E-01
C4 -1.415587562675E-01 -1.588063408770E-01 -3.169982374279E-01
C5  8.138747957895E-02  7.511804872340E-02  2.038792624098E-01
C6 -8.138747957895E-02 -7.511804872340E-02 -2.038792624098E-01
C7  1.030750926482E-01  1.885403829858E-01  1.298051412790E-01
C8 -1.030750926482E-01 -1.885403829858E-01 -1.298051412790E-01
C9  4.306478717384E-02  1.048906373689E-01  1.876901601192E-02
C10 -4.306478717384E-02 -1.048906373689E-01 -1.876901601192E-02
C11  6.433012171410E-02  2.185693326942E-01 -5.691561184677E-02
C12 -6.433012171410E-02 -2.185693326942E-01  5.691561184677E-02
C13 -4.199241768074E-03 -1.349295961676E-01  1.663900576158E-01
C14  4.199241768074E-03  1.349295961676E-01 -1.663900576158E-01
C15 -2.447067339466E-02 -2.498696604577E-01  2.440677009210E-01
C16  2.447067339466E-02  2.498696604577E-01 -2.440677009210E-01
C17  3.592495838513E-02 -1.642932108867E-01  3.510463080020E-01
C18 -3.592495838513E-02  1.642932108867E-01 -3.510463080020E-01
H19  1.670181858697E-01  1.086335561186E-01  4.735498687047E-01
H20 -1.670181858697E-01 -1.086335561186E-01 -4.735498687047E-01
H21  2.038685580710E-01  3.174115845850E-01  3.445078344305E-01
H22 -2.038685580710E-01 -3.174115845850E-01 -3.445078344305E-01
H23  1.674021051704E-01  3.459262061215E-01  1.579303060321E-01
H24 -1.674021051704E-01 -3.459262061215E-01 -1.579303060321E-01
H25  1.289690384970E-01  3.757542426107E-01 -2.878213960865E-02
H26 -1.289690384970E-01 -3.757542426107E-01  2.878213960865E-02
H27 -8.868195228754E-02 -4.071484426215E-01  2.159041831068E-01
H28  8.868195228754E-02  4.071484426215E-01 -2.159041831068E-01
H29  1.979424500209E-02 -2.537243981267E-01  4.088414798196E-01
H30 -1.979424500209E-02  2.537243981267E-01 -4.088414798196E-01
C31 -4.506305236359E-01 -4.244004001612E-01  3.780735810288E-01
C32  4.506305236359E-01  4.244004001612E-01 -3.780735810288E-01
C33  4.910683850543E-01 -3.157458311511E-01  2.918540145923E-01
C34 -4.910683850543E-01  3.157458311511E-01 -2.918540145923E-01
C35 -4.953421026411E-01 -4.088226895650E-01  1.913951125409E-01
C36  4.953421026411E-01  4.088226895650E-01 -1.913951125409E-01
C37  4.466856114657E-01 -3.016820733683E-01  1.022337090382E-01
C38 -4.466856114657E-01  3.016820733683E-01 -1.022337090382E-01
C39  4.615426425811E-01 -3.938142821578E-01  4.017580072274E-03
C40 -4.615426425811E-01  3.938142821578E-01 -4.017580072274E-03
C41  4.035246846770E-01 -2.863311670102E-01 -8.670546023044E-02
C42 -4.035246846770E-01  2.863311670102E-01  8.670546023044E-02
C43 -4.184430511812E-01  3.788020743798E-01  1.833870071692E-01
C44  4.184430511812E-01 -3.788020743798E-01 -1.833870071692E-01
C45 -3.590913705317E-01  2.711968103586E-01  2.763116196357E-01
C46  3.590913705317E-01 -2.711968103586E-01 -2.763116196357E-01
C47 -3.748063788323E-01  3.660886972582E-01  3.701786345902E-01
C48  3.748063788323E-01 -3.660886972582E-01 -3.701786345902E-01
H49 -4.609868173540E-01 -3.513374643257E-01  4.537955230619E-01
H50  4.609868173540E-01  3.513374643257E-01 -4.537955230619E-01
H51  4.338681457510E-01 -1.564035174670E-01  2.980067078776E-01
H52 -4.338681457510E-01  1.564035174670E-01 -2.980067078776E-01
H53  3.890170837917E-01 -1.425018676822E-01  1.083015191999E-01
H54 -3.890170837917E-01  1.425018676822E-01 -1.083015191999E-01
H55  3.459146789056E-01 -1.271095989699E-01 -8.064483446103E-02
H56 -3.459146789056E-01  1.271095989699E-01  8.064483446103E-02
H57 -3.009065094217E-01  1.124425381455E-01  2.703311717056E-01
H58  3.009065094217E-01 -1.124425381455E-01 -2.703311717056E-01
H59 -3.289449971566E-01  2.832447793523E-01  4.401059549714E-01
H60  3.289449971566E-01 -2.832447793523E-01 -4.401059549714E-01


#===END

data_OPT_STEP_23

_symmetry_space_group_name_H-M 'P 1'
_cell_length_a      8.34982244
_cell_length_b      6.23883329
_cell_length_c     13.52988885
_cell_angle_alpha   99.493279
_cell_angle_beta  112.193284
_cell_angle_gamma   86.901973

loop_
_atom_site_label
_atom_site_fract_x
_atom_site_fract_y
_atom_site_fract_z
C1  1.205218521786E-01  4.366129182587E-02  3.881681860832E-01
C2 -1.205218521786E-01 -4.366129182587E-02 -3.881681860832E-01
C3  1.420384831664E-01  1.590379026026E-01  3.168903182225E-01
C4 -1.420384831664E-01 -1.590379026026E-01 -3.168903182225E-01
C5  8.171343990347E-02  7.528088515901E-02  2.038586381983E-01
C6 -8.171343990347E-02 -7.528088515901E-02 -2.038586381983E-01
C7  1.031513256141E-01  1.886336799818E-01  1.295495957261E-01
C8 -1.031513256141E-01 -1.886336799818E-01 -1.295495957261E-01
C9  4.301576170130E-02  1.048877940956E-01  1.860077505338E-02
C10 -4.301576170130E-02 -1.048877940956E-01 -1.860077505338E-02
C11  6.399142226985E-02  2.185224868132E-01 -5.731603747845E-02
C12 -6.399142226985E-02 -2.185224868132E-01  5.731603747845E-02
C13 -3.863173558034E-03 -1.347215373275E-01  1.666886237903E-01
C14  3.863173558034E-03  1.347215373275E-01 -1.666886237903E-01
C15 -2.410299995365E-02 -2.494483352511E-01  2.445905256424E-01
C16  2.410299995365E-02  2.494483352511E-01 -2.445905256424E-01
C17  3.628430665852E-02 -1.637061818988E-01  3.514658711329E-01
C18 -3.628430665852E-02  1.637061818988E-01 -3.514658711329E-01
H19  1.676400850585E-01  1.090868832175E-01  4.735850711801E-01
H20 -1.676400850585E-01 -1.090868832175E-01 -4.735850711801E-01
H21  2.044664856527E-01  3.175417202760E-01  3.441719821225E-01
H22 -2.044664856527E-01 -3.175417202760E-01 -3.441719821225E-01
H23  1.673989980241E-01  3.460264436375E-01  1.574122718959E-01
H24 -1.673989980241E-01 -3.460264436375E-01 -1.574122718959E-01
H25  1.285025305084E-01  3.757457445444E-01 -2.943502880228E-02
H26 -1.285025305084E-01 -3.757457445444E-01  2.943502880228E-02
H27 -8.824890782091E-02 -4.067526620752E-01  2.166626181443E-01
H28  8.824890782091E-02  4.067526620752E-01 -2.166626181443E-01
H29  2.010457411144E-02 -2.529497209352E-01  4.094164361057E-01
H30 -2.010457411144E-02  2.529497209352E-01 -4.094164361057E-01
C31 -4.501944138687E-01 -4.242588388247E-01  3.782996307920E-01
C32  4.501944138687E-01  4.242588388247E-01 -3.782996307920E-01
C33  4.914516320798E-01 -3.156063535545E-01  2.920724297904E-01
C34 -4.914516320798E-01  3.156063535545E-01 -2.920724297904E-01
C35 -4.949698505580E-01 -4.086693906778E-01  1.915575451688E-01
C36  4.949698505580E-01  4.086693906778E-01 -1.915575451688E-01
C37  4.468516426219E-01 -3.015887413941E-01  1.023497066113E-01
C38 -4.468516426219E-01  3.015887413941E-01 -1.023497066113E-01
C39  4.614886704576E-01 -3.938113032199E-01  4.026226866514E-03
C40 -4.614886704576E-01  3.938113032199E-01 -4.026226866514E-03
C41  4.032025699335E-01 -2.864279614580E-01 -8.675422880206E-02
C42 -4.032025699335E-01  2.864279614580E-01  8.675422880206E-02
C43 -4.179885245909E-01  3.789534713764E-01  1.835153905703E-01
C44  4.179885245909E-01 -3.789534713764E-01 -1.835153905703E-01
C45 -3.584612669320E-01  2.714093578322E-01  2.764816141471E-01
C46  3.584612669320E-01 -2.714093578322E-01 -2.764816141471E-01
C47 -3.741857439494E-01  3.662781248102E-01  3.703940252972E-01
C48  3.741857439494E-01 -3.662781248102E-01 -3.703940252972E-01
H49 -4.607716526179E-01 -3.512643621048E-01  4.540117130092E-01
H50  4.607716526179E-01  3.512643621048E-01 -4.540117130092E-01
H51  4.341840691701E-01 -1.562621092723E-01  2.982561755622E-01
H52 -4.341840691701E-01  1.562621092723E-01 -2.982561755622E-01
H53  3.891405979359E-01 -1.423952744322E-01  1.084461906936E-01
H54 -3.891405979359E-01  1.423952744322E-01 -1.084461906936E-01
H55  3.455636807577E-01 -1.271797959397E-01 -8.066780841370E-02
H56 -3.455636807577E-01  1.271797959397E-01  8.066780841370E-02
H57 -3.001554701989E-01  1.126822053724E-01  2.704838779416E-01
H58  3.001554701989E-01 -1.126822053724E-01 -2.704838779416E-01
H59 -3.281977375360E-01  2.834581504635E-01  4.403461084146E-01
H60  3.281977375360E-01 -2.834581504635E-01 -4.403461084146E-01


#===END

data_OPT_STEP_24

_symmetry_space_group_name_H-M 'P 1'
_cell_length_a      8.33801126
_cell_length_b      6.23061243
_cell_length_c     13.51005871
_cell_angle_alpha   99.342178
_cell_angle_beta  111.881231
_cell_angle_gamma   86.896317

loop_
_atom_site_label
_atom_site_fract_x
_atom_site_fract_y
_atom_site_fract_z
C1  1.200625369078E-01  4.546496486811E-02  3.882830204248E-01
C2 -1.200625369078E-01 -4.546496486811E-02 -3.882830204248E-01
C3  1.416511728331E-01  1.603906722422E-01  3.165326954651E-01
C4 -1.416511728331E-01 -1.603906722422E-01 -3.165326954651E-01
C5  8.148926433232E-02  7.616691394833E-02  2.037282905384E-01
C6 -8.148926433232E-02 -7.616691394833E-02 -2.037282905384E-01
C7  1.029290212102E-01  1.890905536748E-01  1.289340148811E-01
C8 -1.029290212102E-01 -1.890905536748E-01 -1.289340148811E-01
C9  4.291195067069E-02  1.049039153317E-01  1.822125286574E-02
C10 -4.291195067069E-02 -1.049039153317E-01 -1.822125286574E-02
C11  6.375530522133E-02  2.182165655174E-01 -5.818937593620E-02
C12 -6.375530522133E-02 -2.182165655174E-01  5.818937593620E-02
C13 -4.030593260772E-03 -1.338140263797E-01  1.673072710826E-01
C14  4.030593260772E-03  1.338140263797E-01 -1.673072710826E-01
C15 -2.430381034199E-02 -2.480779754795E-01  2.456919891342E-01
C16  2.430381034199E-02  2.480779754795E-01 -2.456919891342E-01
C17  3.584866649959E-02 -1.618367167034E-01  3.523134241505E-01
C18 -3.584866649959E-02  1.618367167034E-01 -3.523134241505E-01
H19  1.670849749417E-01  1.111522795855E-01  4.735317114710E-01
H20 -1.670849749417E-01 -1.111522795855E-01 -4.735317114710E-01
H21  2.043302209025E-01  3.187113092833E-01  3.432696484206E-01
H22 -2.043302209025E-01 -3.187113092833E-01 -3.432696484206E-01
H23  1.672561630998E-01  3.463719240324E-01  1.562225950513E-01
H24 -1.672561630998E-01 -3.463719240324E-01 -1.562225950513E-01
H25  1.279181286301E-01  3.755835573016E-01 -3.090112551379E-02
H26 -1.279181286301E-01 -3.755835573016E-01  3.090112551379E-02
H27 -8.846943082974E-02 -4.053604577961E-01  2.183211634908E-01
H28  8.846943082974E-02  4.053604577961E-01 -2.183211634908E-01
H29  1.950749255974E-02 -2.506538457995E-01  4.106456901719E-01
H30 -1.950749255974E-02  2.506538457995E-01 -4.106456901719E-01
C31 -4.497256676205E-01 -4.245105278486E-01  3.786617438484E-01
C32  4.497256676205E-01  4.245105278486E-01 -3.786617438484E-01
C33  4.916280445189E-01 -3.156925051126E-01  2.923682115127E-01
C34 -4.916280445189E-01  3.156925051126E-01 -2.923682115127E-01
C35 -4.949017844016E-01 -4.087692251165E-01  1.917209757413E-01
C36  4.949017844016E-01  4.087692251165E-01 -1.917209757413E-01
C37  4.469322342366E-01 -3.013677262009E-01  1.025150295228E-01
C38 -4.469322342366E-01  3.013677262009E-01 -1.025150295228E-01
C39  4.614152345342E-01 -3.936988290042E-01  4.059244507102E-03
C40 -4.614152345342E-01  3.936988290042E-01 -4.059244507102E-03
C41  4.030616500918E-01 -2.860273155648E-01 -8.675245936475E-02
C42 -4.030616500918E-01  2.860273155648E-01  8.675245936475E-02
C43 -4.178761413073E-01  3.785510841982E-01  1.835988084475E-01
C44  4.178761413073E-01 -3.785510841982E-01 -1.835988084475E-01
C45 -3.584112532966E-01  2.706598935797E-01  2.765695890761E-01
C46  3.584112532966E-01 -2.706598935797E-01 -2.765695890761E-01
C47 -3.739836699958E-01  3.656423291145E-01  3.706053785663E-01
C48  3.739836699958E-01 -3.656423291145E-01 -3.706053785663E-01
H49 -4.602179328674E-01 -3.514132468290E-01  4.544666458676E-01
H50  4.602179328674E-01  3.514132468290E-01 -4.544666458676E-01
H51  4.342105746516E-01 -1.561904674608E-01  2.985996725033E-01
H52 -4.342105746516E-01  1.561904674608E-01 -2.985996725033E-01
H53  3.893904245132E-01 -1.418572575835E-01  1.087226780195E-01
H54 -3.893904245132E-01  1.418572575835E-01 -1.087226780195E-01
H55  3.453421142846E-01 -1.265741366611E-01 -8.062631840935E-02
H56 -3.453421142846E-01  1.265741366611E-01  8.062631840935E-02
H57 -3.004524053997E-01  1.115379510007E-01  2.704294001889E-01
H58  3.004524053997E-01 -1.115379510007E-01 -2.704294001889E-01
H59 -3.280924267365E-01  2.825444943314E-01  4.405472734566E-01
H60  3.280924267365E-01 -2.825444943314E-01 -4.405472734566E-01


#===END

data_OPT_STEP_25

_symmetry_space_group_name_H-M 'P 1'
_cell_length_a      8.35630538
_cell_length_b      6.22482143
_cell_length_c     13.49407101
_cell_angle_alpha   99.165351
_cell_angle_beta  111.619391
_cell_angle_gamma   87.049865

loop_
_atom_site_label
_atom_site_fract_x
_atom_site_fract_y
_atom_site_fract_z
C1  1.217880481586E-01  4.517786652759E-02  3.885398781872E-01
C2 -1.217880481586E-01 -4.517786652759E-02 -3.885398781872E-01
C3  1.427566798768E-01  1.603042203123E-01  3.163565818542E-01
C4 -1.427566798768E-01 -1.603042203123E-01 -3.163565818542E-01
C5  8.208098147187E-02  7.618463376150E-02  2.036767632258E-01
C6 -8.208098147187E-02 -7.618463376150E-02 -2.036767632258E-01
C7  1.033505403204E-01  1.890041104979E-01  1.284958968809E-01
C8 -1.033505403204E-01 -1.890041104979E-01 -1.284958968809E-01
C9  4.311062161313E-02  1.047645271095E-01  1.794323546672E-02
C10 -4.311062161313E-02 -1.047645271095E-01 -1.794323546672E-02
C11  6.365423952047E-02  2.180451187321E-01 -5.888029844565E-02
C12 -6.365423952047E-02 -2.180451187321E-01  5.888029844565E-02
C13 -3.438390039622E-03 -1.337641605191E-01  1.678632365020E-01
C14  3.438390039622E-03  1.337641605191E-01 -1.678632365020E-01
C15 -2.320238965594E-02 -2.481565370327E-01  2.466706230116E-01
C16  2.320238965594E-02  2.481565370327E-01 -2.466706230116E-01
C17  3.747393681858E-02 -1.620530307052E-01  3.531484221950E-01
C18 -3.747393681858E-02  1.620530307052E-01 -3.531484221950E-01
H19  1.691194482105E-01  1.107819246823E-01  4.736738330435E-01
H20 -1.691194482105E-01 -1.107819246823E-01 -4.736738330435E-01
H21  2.050123815829E-01  3.188422615733E-01  3.425484745668E-01
H22 -2.050123815829E-01 -3.188422615733E-01 -3.425484745668E-01
H23  1.676983946264E-01  3.462594609949E-01  1.552907566125E-01
H24 -1.676983946264E-01 -3.462594609949E-01 -1.552907566125E-01
H25  1.272571428618E-01  3.757129927040E-01 -3.209481119645E-02
H26 -1.272571428618E-01 -3.757129927040E-01  3.209481119645E-02
H27 -8.730771916430E-02 -4.054329051022E-01  2.197522177331E-01
H28  8.730771916430E-02  4.054329051022E-01 -2.197522177331E-01
H29  2.175071785315E-02 -2.510614978606E-01  4.118302933251E-01
H30 -2.175071785315E-02  2.510614978606E-01 -4.118302933251E-01
C31 -4.500064782482E-01 -4.249633919852E-01  3.788282368776E-01
C32  4.500064782482E-01  4.249633919852E-01 -3.788282368776E-01
C33  4.911219211949E-01 -3.163474496440E-01  2.923705738250E-01
C34 -4.911219211949E-01  3.163474496440E-01 -2.923705738250E-01
C35 -4.953562514095E-01 -4.092150061350E-01  1.917139842465E-01
C36  4.953562514095E-01  4.092150061350E-01 -1.917139842465E-01
C37  4.464174289499E-01 -3.019099041556E-01  1.023979505156E-01
C38 -4.464174289499E-01  3.019099041556E-01 -1.023979505156E-01
C39  4.612028904920E-01 -3.938945391165E-01  3.989603282108E-03
C40 -4.612028904920E-01  3.938945391165E-01 -3.989603282108E-03
C41  4.026347575383E-01 -2.864183965627E-01 -8.696835938644E-02
C42 -4.026347575383E-01  2.864183965627E-01  8.696835938644E-02
C43 -4.177470886052E-01  3.786039122180E-01  1.837755872457E-01
C44  4.177470886052E-01 -3.786039122180E-01 -1.837755872457E-01
C45 -3.579680813768E-01  2.709333829777E-01  2.768958548362E-01
C46  3.579680813768E-01 -2.709333829777E-01 -2.768958548362E-01
C47 -3.736469502566E-01  3.656621193150E-01  3.709452291544E-01
C48  3.736469502566E-01 -3.656621193150E-01 -3.709452291544E-01
H49 -4.600496597580E-01 -3.516644542395E-01  4.547466134103E-01
H50  4.600496597580E-01  3.516644542395E-01 -4.547466134103E-01
H51  4.334693681142E-01 -1.571070285612E-01  2.985305734001E-01
H52 -4.334693681142E-01  1.571070285612E-01 -2.985305734001E-01
H53  3.886778046317E-01 -1.426526304832E-01  1.085213355355E-01
H54 -3.886778046317E-01  1.426526304832E-01 -1.085213355355E-01
H55  3.441625384314E-01 -1.274948069693E-01 -8.104813617433E-02
H56 -3.441625384314E-01  1.274948069693E-01  8.104813617433E-02
H57 -2.994023299754E-01  1.122464388377E-01  2.709226117622E-01
H58  2.994023299754E-01 -1.122464388377E-01 -2.709226117622E-01
H59 -3.276480855935E-01  2.826040536713E-01  4.409419884942E-01
H60  3.276480855935E-01 -2.826040536713E-01 -4.409419884942E-01


#===END

data_OPT_STEP_26

_symmetry_space_group_name_H-M 'P 1'
_cell_length_a      8.35836927
_cell_length_b      6.21173785
_cell_length_c     13.45799175
_cell_angle_alpha   98.910675
_cell_angle_beta  110.900534
_cell_angle_gamma   87.214889

loop_
_atom_site_label
_atom_site_fract_x
_atom_site_fract_y
_atom_site_fract_z
C1  1.233447096006E-01  4.636341419193E-02  3.888737773859E-01
C2 -1.233447096006E-01 -4.636341419193E-02 -3.888737773859E-01
C3  1.443856538773E-01  1.609196043518E-01  3.158729524510E-01
C4 -1.443856538773E-01 -1.609196043518E-01 -3.158729524510E-01
C5  8.341530805156E-02  7.646135641199E-02  2.035771235436E-01
C6 -8.341530805156E-02 -7.646135641199E-02 -2.035771235436E-01
C7  1.040471519114E-01  1.890619316542E-01  1.274818517427E-01
C8 -1.040471519114E-01 -1.890619316542E-01 -1.274818517427E-01
C9  4.291541832274E-02  1.048442616012E-01  1.725791749470E-02
C10 -4.291541832274E-02 -1.048442616012E-01 -1.725791749470E-02
C11  6.283797114638E-02  2.179037146651E-01 -6.045668472022E-02
C12 -6.283797114638E-02 -2.179037146651E-01  6.045668472022E-02
C13 -2.076805194054E-03 -1.334535047691E-01  1.690570363630E-01
C14  2.076805194054E-03  1.334535047691E-01 -1.690570363630E-01
C15 -2.131079262830E-02 -2.475749614120E-01  2.487895122828E-01
C16  2.131079262830E-02  2.475749614120E-01 -2.487895122828E-01
C17  3.916647721945E-02 -1.608675776959E-01  3.548055831352E-01
C18 -3.916647721945E-02  1.608675776959E-01 -3.548055831352E-01
H19  1.704099127764E-01  1.124639447458E-01  4.736538225363E-01
H20 -1.704099127764E-01 -1.124639447458E-01 -4.736538225363E-01
H21  2.068857361867E-01  3.192906508208E-01  3.411610366566E-01
H22 -2.068857361867E-01 -3.192906508208E-01 -3.411610366566E-01
H23  1.682759418202E-01  3.463340459144E-01  1.532490846672E-01
H24 -1.682759418202E-01 -3.463340459144E-01 -1.532490846672E-01
H25  1.263246719192E-01  3.756039012893E-01 -3.466431865845E-02
H26 -1.263246719192E-01 -3.756039012893E-01  3.466431865845E-02
H27 -8.523647457645E-02 -4.049366324131E-01  2.228391996711E-01
H28  8.523647457645E-02  4.049366324131E-01 -2.228391996711E-01
H29  2.320536502970E-02 -2.492848863707E-01  4.141149819487E-01
H30 -2.320536502970E-02  2.492848863707E-01 -4.141149819487E-01
C31 -4.484210149816E-01 -4.243674507584E-01  3.796840565721E-01
C32  4.484210149816E-01  4.243674507584E-01 -3.796840565721E-01
C33  4.919593322249E-01 -3.160742919638E-01  2.930834946081E-01
C34 -4.919593322249E-01  3.160742919638E-01 -2.930834946081E-01
C35 -4.947923741586E-01 -4.090401423947E-01  1.921551610401E-01
C36  4.947923741586E-01  4.090401423947E-01 -1.921551610401E-01
C37  4.463389418554E-01 -3.019687839340E-01  1.026908395668E-01
C38 -4.463389418554E-01  3.019687839340E-01 -1.026908395668E-01
C39  4.610703444258E-01 -3.939140558625E-01  4.053748471944E-03
C40 -4.610703444258E-01  3.939140558625E-01 -4.053748471944E-03
C41  4.018124981626E-01 -2.866920232843E-01 -8.705559830507E-02
C42 -4.018124981626E-01  2.866920232843E-01  8.705559830507E-02
C43 -4.165824204030E-01  3.790061045268E-01  1.841486608289E-01
C44  4.165824204030E-01 -3.790061045268E-01 -1.841486608289E-01
C45 -3.561901469146E-01  2.715655299339E-01  2.774249348110E-01
C46  3.561901469146E-01 -2.715655299339E-01 -2.774249348110E-01
C47 -3.716806100580E-01  3.663756937978E-01  3.717120107338E-01
C48  3.716806100580E-01 -3.663756937978E-01 -3.717120107338E-01
H49 -4.590943684050E-01 -3.513672823763E-01  4.556102871692E-01
H50  4.590943684050E-01  3.513672823763E-01 -4.556102871692E-01
H51  4.336438467170E-01 -1.570987041695E-01  2.992558842271E-01
H52 -4.336438467170E-01  1.570987041695E-01 -2.992558842271E-01
H53  3.881706654973E-01 -1.428555117485E-01  1.088671624497E-01
H54 -3.881706654973E-01  1.428555117485E-01 -1.088671624497E-01
H55  3.429139234391E-01 -1.279126044803E-01 -8.108956185604E-02
H56 -3.429139234391E-01  1.279126044803E-01  8.108956185604E-02
H57 -2.977039139562E-01  1.127659316677E-01  2.712844052860E-01
H58  2.977039139562E-01 -1.127659316677E-01 -2.712844052860E-01
H59 -3.255747063840E-01  2.833099781453E-01  4.417519109435E-01
H60  3.255747063840E-01 -2.833099781453E-01 -4.417519109435E-01


#===END

data_OPT_STEP_27

_symmetry_space_group_name_H-M 'P 1'
_cell_length_a      8.32416977
_cell_length_b      6.20731172
_cell_length_c     13.43996569
_cell_angle_alpha   99.149190
_cell_angle_beta  110.220946
_cell_angle_gamma   87.032676

loop_
_atom_site_label
_atom_site_fract_x
_atom_site_fract_y
_atom_site_fract_z
C1  1.225567869008E-01  4.839704233620E-02  3.884394949026E-01
C2 -1.225567869008E-01 -4.839704233620E-02 -3.884394949026E-01
C3  1.450476555111E-01  1.616232446383E-01  3.153988392159E-01
C4 -1.450476555111E-01 -1.616232446383E-01 -3.153988392159E-01
C5  8.329253356516E-02  7.729639448871E-02  2.032909261640E-01
C6 -8.329253356516E-02 -7.729639448871E-02 -2.032909261640E-01
C7  1.037525728537E-01  1.895576429009E-01  1.269424131226E-01
C8 -1.037525728537E-01 -1.895576429009E-01 -1.269424131226E-01
C9  4.292779181826E-02  1.047839660579E-01  1.699976539986E-02
C10 -4.292779181826E-02 -1.047839660579E-01 -1.699976539986E-02
C11  6.446943275125E-02  2.163429509540E-01 -6.081072634194E-02
C12 -6.446943275125E-02 -2.163429509540E-01  6.081072634194E-02
C13 -2.833254399404E-03 -1.321253681551E-01  1.692172724330E-01
C14  2.833254399404E-03  1.321253681551E-01 -1.692172724330E-01
C15 -2.217676310783E-02 -2.457147600363E-01  2.491193608350E-01
C16  2.217676310783E-02  2.457147600363E-01 -2.491193608350E-01
C17  3.791545303231E-02 -1.584427160436E-01  3.548083270835E-01
C18 -3.791545303231E-02  1.584427160436E-01 -3.548083270835E-01
H19  1.691344464556E-01  1.150435085771E-01  4.729835742440E-01
H20 -1.691344464556E-01 -1.150435085771E-01 -4.729835742440E-01
H21  2.071423156643E-01  3.201002958281E-01  3.402711315193E-01
H22 -2.071423156643E-01 -3.201002958281E-01 -3.402711315193E-01
H23  1.685596062112E-01  3.463739825288E-01  1.523578171086E-01
H24 -1.685596062112E-01 -3.463739825288E-01 -1.523578171086E-01
H25  1.293008766453E-01  3.731758611186E-01 -3.528160562360E-02
H26 -1.293008766453E-01 -3.731758611186E-01  3.528160562360E-02
H27 -8.632357068938E-02 -4.028149182511E-01  2.235819967695E-01
H28  8.632357068938E-02  4.028149182511E-01 -2.235819967695E-01
H29  2.117571597083E-02 -2.460086417067E-01  4.142300991054E-01
H30 -2.117571597083E-02  2.460086417067E-01 -4.142300991054E-01
C31 -4.476457949132E-01 -4.240952562466E-01  3.801201729760E-01
C32  4.476457949132E-01  4.240952562466E-01 -3.801201729760E-01
C33  4.949052037335E-01 -3.140642952995E-01  2.945833563492E-01
C34 -4.949052037335E-01  3.140642952995E-01 -2.945833563492E-01
C35 -4.925133999271E-01 -4.076776597710E-01  1.930809295261E-01
C36  4.925133999271E-01  4.076776597710E-01 -1.930809295261E-01
C37  4.479951038503E-01 -3.005540910303E-01  1.040514172559E-01
C38 -4.479951038503E-01  3.005540910303E-01 -1.040514172559E-01
C39  4.620334253655E-01 -3.931999312086E-01  4.818648626971E-03
C40 -4.620334253655E-01  3.931999312086E-01 -4.818648626971E-03
C41  4.026155991467E-01 -2.856016463434E-01 -8.572055154776E-02
C42 -4.026155991467E-01  2.856016463434E-01  8.572055154776E-02
C43 -4.160607815382E-01  3.788424256405E-01  1.835711804843E-01
C44  4.160607815382E-01 -3.788424256405E-01 -1.835711804843E-01
C45 -3.546146424725E-01  2.715112880841E-01  2.764778637503E-01
C46  3.546146424725E-01 -2.715112880841E-01 -2.764778637503E-01
C47 -3.701665132185E-01  3.663652771989E-01  3.711584282048E-01
C48  3.701665132185E-01 -3.663652771989E-01 -3.711584282048E-01
H49 -4.582010930468E-01 -3.510777362955E-01  4.564170775424E-01
H50  4.582010930468E-01  3.510777362955E-01 -4.564170775424E-01
H51  4.388773478313E-01 -1.534993795421E-01  3.020642889162E-01
H52 -4.388773478313E-01  1.534993795421E-01 -3.020642889162E-01
H53  3.898247811523E-01 -1.409727772551E-01  1.110200757616E-01
H54 -3.898247811523E-01  1.409727772551E-01 -1.110200757616E-01
H55  3.450501858761E-01 -1.257842038257E-01 -7.862665305709E-02
H56 -3.450501858761E-01  1.257842038257E-01  7.862665305709E-02
H57 -2.940464884807E-01  1.132747429530E-01  2.700077438570E-01
H58  2.940464884807E-01 -1.132747429530E-01 -2.700077438570E-01
H59 -3.231143964272E-01  2.833850703688E-01  4.409150416326E-01
H60  3.231143964272E-01 -2.833850703688E-01 -4.409150416326E-01


#===END

data_OPT_STEP_28

_symmetry_space_group_name_H-M 'P 1'
_cell_length_a      8.34893677
_cell_length_b      6.20749581
_cell_length_c     13.45433945
_cell_angle_alpha   98.928955
_cell_angle_beta  110.764147
_cell_angle_gamma   87.182430

loop_
_atom_site_label
_atom_site_fract_x
_atom_site_fract_y
_atom_site_fract_z
C1  1.229364049882E-01  4.652668391096E-02  3.886782564239E-01
C2 -1.229364049882E-01 -4.652668391096E-02 -3.886782564239E-01
C3  1.446143764967E-01  1.607542749033E-01  3.157241735716E-01
C4 -1.446143764967E-01 -1.607542749033E-01 -3.157241735716E-01
C5  8.334188270123E-02  7.647423971647E-02  2.034751240521E-01
C6 -8.334188270123E-02 -7.647423971647E-02 -2.034751240521E-01
C7  1.038005684463E-01  1.892625887920E-01  1.273284249688E-01
C8 -1.038005684463E-01 -1.892625887920E-01 -1.273284249688E-01
C9  4.279299628231E-02  1.049648077454E-01  1.718716306977E-02
C10 -4.279299628231E-02 -1.049648077454E-01 -1.718716306977E-02
C11  6.330372892663E-02  2.177156185903E-01 -6.051703694883E-02
C12 -6.330372892663E-02 -2.177156185903E-01  6.051703694883E-02
C13 -2.327954772254E-03 -1.334065572895E-01  1.690626659069E-01
C14  2.327954772254E-03  1.334065572895E-01 -1.690626659069E-01
C15 -2.172475514046E-02 -2.475035078443E-01  2.487795038794E-01
C16  2.172475514046E-02  2.475035078443E-01 -2.487795038794E-01
C17  3.860047384770E-02 -1.606949827300E-01  3.546972778741E-01
C18 -3.860047384770E-02  1.606949827300E-01 -3.546972778741E-01
H19  1.697994851241E-01  1.127693314117E-01  4.733904870320E-01
H20 -1.697994851241E-01 -1.127693314117E-01 -4.733904870320E-01
H21  2.068073698553E-01  3.193437277299E-01  3.408826656021E-01
H22 -2.068073698553E-01 -3.193437277299E-01 -3.408826656021E-01
H23  1.681967921024E-01  3.464880826263E-01  1.530245672751E-01
H24 -1.681967921024E-01 -3.464880826263E-01 -1.530245672751E-01
H25  1.274480257839E-01  3.750961187122E-01 -3.475821117616E-02
H26 -1.274480257839E-01 -3.750961187122E-01  3.475821117616E-02
H27 -8.570038559297E-02 -4.048519236688E-01  2.229586794648E-01
H28  8.570038559297E-02  4.048519236688E-01 -2.229586794648E-01
H29  2.229551318799E-02 -2.489265738497E-01  4.140189705670E-01
H30 -2.229551318799E-02  2.489265738497E-01 -4.140189705670E-01
C31 -4.483420037966E-01 -4.242466966484E-01  3.797218019593E-01
C32  4.483420037966E-01  4.242466966484E-01 -3.797218019593E-01
C33  4.930222081108E-01 -3.152256010925E-01  2.934317093511E-01
C34 -4.930222081108E-01  3.152256010925E-01 -2.934317093511E-01
C35 -4.938191672493E-01 -4.083939701481E-01  1.924354787089E-01
C36  4.938191672493E-01  4.083939701481E-01 -1.924354787089E-01
C37  4.470763698348E-01 -3.013286108689E-01  1.030149533232E-01
C38 -4.470763698348E-01  3.013286108689E-01 -1.030149533232E-01
C39  4.614663907043E-01 -3.936320855213E-01  4.233361542144E-03
C40 -4.614663907043E-01  3.936320855213E-01 -4.233361542144E-03
C41  4.021907670009E-01 -2.862661856320E-01 -8.676805917747E-02
C42 -4.021907670009E-01  2.862661856320E-01  8.676805917747E-02
C43 -4.164461601475E-01  3.789785391346E-01  1.840527992013E-01
C44  4.164461601475E-01 -3.789785391346E-01 -1.840527992013E-01
C45 -3.557527040670E-01  2.715391228203E-01  2.772768004969E-01
C46  3.557527040670E-01 -2.715391228203E-01 -2.772768004969E-01
C47 -3.713469617949E-01  3.663649010565E-01  3.716037079230E-01
C48  3.713469617949E-01 -3.663649010565E-01 -3.716037079230E-01
H49 -4.588362438702E-01 -3.511955871034E-01  4.557329691903E-01
H50  4.588362438702E-01  3.511955871034E-01 -4.557329691903E-01
H51  4.356516288784E-01 -1.556040820095E-01  2.999405850997E-01
H52 -4.356516288784E-01  1.556040820095E-01 -2.999405850997E-01
H53  3.888813755166E-01 -1.420435416505E-01  1.093046455292E-01
H54 -3.888813755166E-01  1.420435416505E-01 -1.093046455292E-01
H55  3.440517956234E-01 -1.269663717280E-01 -8.048459908653E-02
H56 -3.440517956234E-01  1.269663717280E-01  8.048459908653E-02
H57 -2.963723330566E-01  1.129940013948E-01  2.712160520731E-01
H58  2.963723330566E-01 -1.129940013948E-01 -2.712160520731E-01
H59 -3.248087006392E-01  2.833866059054E-01  4.416497173925E-01
H60  3.248087006392E-01 -2.833866059054E-01 -4.416497173925E-01


#===END

data_OPT_STEP_29

_symmetry_space_group_name_H-M 'P 1'
_cell_length_a      8.35666147
_cell_length_b      6.21027227
_cell_length_c     13.45726920
_cell_angle_alpha   98.911091
_cell_angle_beta  110.877244
_cell_angle_gamma   87.212327

loop_
_atom_site_label
_atom_site_fract_x
_atom_site_fract_y
_atom_site_fract_z
C1  1.232141681789E-01  4.634837544537E-02  3.888046957608E-01
C2 -1.232141681789E-01 -4.634837544537E-02 -3.888046957608E-01
C3  1.444812519577E-01  1.608117672755E-01  3.158349954662E-01
C4 -1.444812519577E-01 -1.608117672755E-01 -3.158349954662E-01
C5  8.340425860823E-02  7.642374811208E-02  2.035479602429E-01
C6 -8.340425860823E-02 -7.642374811208E-02 -2.035479602429E-01
C7  1.039141263733E-01  1.891602220541E-01  1.274426024620E-01
C8 -1.039141263733E-01 -1.891602220541E-01 -1.274426024620E-01
C9  4.282082195469E-02  1.049294087440E-01  1.723874822079E-02
C10 -4.282082195469E-02 -1.049294087440E-01 -1.723874822079E-02
C11  6.288498171412E-02  2.179471910872E-01 -6.046704141753E-02
C12 -6.288498171412E-02 -2.179471910872E-01  6.046704141753E-02
C13 -2.117592462290E-03 -1.335137794902E-01  1.690517602554E-01
C14  2.117592462290E-03  1.335137794902E-01 -1.690517602554E-01
C15 -2.146938490246E-02 -2.476187508579E-01  2.487530420570E-01
C16  2.146938490246E-02  2.476187508579E-01 -2.487530420570E-01
C17  3.900932690860E-02 -1.609167527040E-01  3.547466346144E-01
C18 -3.900932690860E-02  1.609167527040E-01 -3.547466346144E-01
H19  1.702687762303E-01  1.124625905942E-01  4.735746783292E-01
H20 -1.702687762303E-01 -1.124625905942E-01 -4.735746783292E-01
H21  2.068197953042E-01  3.193000836847E-01  3.410863460872E-01
H22 -2.068197953042E-01 -3.193000836847E-01 -3.410863460872E-01
H23  1.681997431231E-01  3.464320574759E-01  1.532046499588E-01
H24 -1.681997431231E-01 -3.464320574759E-01 -1.532046499588E-01
H25  1.266713238732E-01  3.755098587813E-01 -3.466485860781E-02
H26 -1.266713238732E-01 -3.755098587813E-01  3.466485860781E-02
H27 -8.540978981421E-02 -4.049808692407E-01  2.228447179959E-01
H28  8.540978981421E-02  4.049808692407E-01 -2.228447179959E-01
H29  2.298409993484E-02 -2.493119665949E-01  4.140595383900E-01
H30 -2.298409993484E-02  2.493119665949E-01 -4.140595383900E-01
C31 -4.485231580417E-01 -4.243628915096E-01  3.796537902528E-01
C32  4.485231580417E-01  4.243628915096E-01 -3.796537902528E-01
C33  4.922140858457E-01 -3.158324063750E-01  2.931483603395E-01
C34 -4.922140858457E-01  3.158324063750E-01 -2.931483603395E-01
C35 -4.944507044847E-01 -4.088094422559E-01  1.922409408734E-01
C36  4.944507044847E-01  4.088094422559E-01 -1.922409408734E-01
C37  4.465731421288E-01 -3.017755760364E-01  1.027697001568E-01
C38 -4.465731421288E-01  3.017755760364E-01 -1.027697001568E-01
C39  4.611769418083E-01 -3.938508151201E-01  4.093720702932E-03
C40 -4.611769418083E-01  3.938508151201E-01 -4.093720702932E-03
C41  4.019164120498E-01 -2.865972583889E-01 -8.699305988007E-02
C42 -4.019164120498E-01  2.865972583889E-01  8.699305988007E-02
C43 -4.165559670915E-01  3.790213447171E-01  1.841285506418E-01
C44  4.165559670915E-01 -3.790213447171E-01 -1.841285506418E-01
C45 -3.561185236651E-01  2.715654578018E-01  2.773881074937E-01
C46  3.561185236651E-01 -2.715654578018E-01 -2.773881074937E-01
C47 -3.716888276675E-01  3.663627305846E-01  3.716654316540E-01
C48  3.716888276675E-01 -3.663627305846E-01 -3.716654316540E-01
H49 -4.590486714315E-01 -3.513294664956E-01  4.556152161835E-01
H50  4.590486714315E-01  3.513294664956E-01 -4.556152161835E-01
H51  4.342003829255E-01 -1.566699351563E-01  2.994066192061E-01
H52 -4.342003829255E-01  1.566699351563E-01 -2.994066192061E-01
H53  3.883525328376E-01 -1.426458214554E-01  1.089505476569E-01
H54 -3.883525328376E-01  1.426458214554E-01 -1.089505476569E-01
H55  3.433846448155E-01 -1.276126910837E-01 -8.091406466180E-02
H56 -3.433846448155E-01  1.276126910837E-01  8.091406466180E-02
H57 -2.972935773707E-01  1.128845301787E-01  2.713086729781E-01
H58  2.972935773707E-01 -1.128845301787E-01 -2.713086729781E-01
H59 -3.253858291486E-01  2.833736562628E-01  4.417346766652E-01
H60  3.253858291486E-01 -2.833736562628E-01 -4.417346766652E-01


#===END

data_OPT_STEP_30

_symmetry_space_group_name_H-M 'P 1'
_cell_length_a      8.35868261
_cell_length_b      6.20856105
_cell_length_c     13.45587962
_cell_angle_alpha   98.894333
_cell_angle_beta  110.852153
_cell_angle_gamma   87.240068

loop_
_atom_site_label
_atom_site_fract_x
_atom_site_fract_y
_atom_site_fract_z
C1  1.233349980066E-01  4.629550574287E-02  3.888009825345E-01
C2 -1.233349980066E-01 -4.629550574287E-02 -3.888009825345E-01
C3  1.444318322174E-01  1.609045022591E-01  3.157907546320E-01
C4 -1.444318322174E-01 -1.609045022591E-01 -3.157907546320E-01
C5  8.342227049877E-02  7.644059402604E-02  2.035302119596E-01
C6 -8.342227049877E-02 -7.644059402604E-02 -2.035302119596E-01
C7  1.038450583882E-01  1.892663377910E-01  1.273899230410E-01
C8 -1.038450583882E-01 -1.892663377910E-01 -1.273899230410E-01
C9  4.278519319178E-02  1.049862593498E-01  1.720973000371E-02
C10 -4.278519319178E-02 -1.049862593498E-01 -1.720973000371E-02
C11  6.261996589519E-02  2.181766712286E-01 -6.054620413206E-02
C12 -6.261996589519E-02 -2.181766712286E-01  6.054620413206E-02
C13 -2.002499762289E-03 -1.336168167054E-01  1.690985353177E-01
C14  2.002499762289E-03  1.336168167054E-01 -1.690985353177E-01
C15 -2.144350103417E-02 -2.477012580627E-01  2.488092326711E-01
C16  2.144350103417E-02  2.477012580627E-01 -2.488092326711E-01
C17  3.924117694733E-02 -1.611021924825E-01  3.547980668159E-01
C18 -3.924117694733E-02  1.611021924825E-01 -3.547980668159E-01
H19  1.706412044393E-01  1.122800767723E-01  4.735826208336E-01
H20 -1.706412044393E-01 -1.122800767723E-01 -4.735826208336E-01
H21  2.067827281828E-01  3.194353263738E-01  3.410183218820E-01
H22 -2.067827281828E-01 -3.194353263738E-01 -3.410183218820E-01
H23  1.680921434871E-01  3.466110960136E-01  1.531169067670E-01
H24 -1.680921434871E-01 -3.466110960136E-01 -1.531169067670E-01
H25  1.265087713345E-01  3.757328356849E-01 -3.477346692004E-02
H26 -1.265087713345E-01 -3.757328356849E-01  3.477346692004E-02
H27 -8.536464410236E-02 -4.051145112174E-01  2.229504577722E-01
H28  8.536464410236E-02  4.051145112174E-01 -2.229504577722E-01
H29  2.346839932899E-02 -2.496662027100E-01  4.141547401499E-01
H30 -2.346839932899E-02  2.496662027100E-01 -4.141547401499E-01
C31 -4.484939665720E-01 -4.243340617907E-01  3.796561002855E-01
C32  4.484939665720E-01  4.243340617907E-01 -3.796561002855E-01
C33  4.921859092375E-01 -3.158424871652E-01  2.931405706793E-01
C34 -4.921859092375E-01  3.158424871652E-01 -2.931405706793E-01
C35 -4.943354856698E-01 -4.087479405343E-01  1.922685400527E-01
C36  4.943354856698E-01  4.087479405343E-01 -1.922685400527E-01
C37  4.466050650339E-01 -3.017612013272E-01  1.027771590304E-01
C38 -4.466050650339E-01  3.017612013272E-01 -1.027771590304E-01
C39  4.610520761367E-01 -3.939217220666E-01  4.062518677745E-03
C40 -4.610520761367E-01  3.939217220666E-01 -4.062518677745E-03
C41  4.017098710068E-01 -2.867213667651E-01 -8.704533244090E-02
C42 -4.017098710068E-01  2.867213667651E-01  8.704533244090E-02
C43 -4.164512587668E-01  3.790934759407E-01  1.841558311781E-01
C44  4.164512587668E-01 -3.790934759407E-01 -1.841558311781E-01
C45 -3.561835951288E-01  2.715466835285E-01  2.773806798896E-01
C46  3.561835951288E-01 -2.715466835285E-01 -2.773806798896E-01
C47 -3.718189020100E-01  3.663290412007E-01  3.716421414690E-01
C48  3.718189020100E-01 -3.663290412007E-01 -3.716421414690E-01
H49 -4.589172471164E-01 -3.512951643930E-01  4.556385415650E-01
H50  4.589172471164E-01  3.512951643930E-01 -4.556385415650E-01
H51  4.341240273728E-01 -1.567179682206E-01  2.993827924693E-01
H52 -4.341240273728E-01  1.567179682206E-01 -2.993827924693E-01
H53  3.883648238229E-01 -1.426499969048E-01  1.089485299121E-01
H54 -3.883648238229E-01  1.426499969048E-01 -1.089485299121E-01
H55  3.433044301076E-01 -1.276878932601E-01 -8.093974798626E-02
H56 -3.433044301076E-01  1.276878932601E-01  8.093974798626E-02
H57 -2.974719287993E-01  1.128168321200E-01  2.712844058272E-01
H58  2.974719287993E-01 -1.128168321200E-01 -2.712844058272E-01
H59 -3.254695045812E-01  2.833843823224E-01  4.417356389317E-01
H60  3.254695045812E-01 -2.833843823224E-01 -4.417356389317E-01


#===END

data_OPT_STEP_31

_symmetry_space_group_name_H-M 'P 1'
_cell_length_a      8.35761086
_cell_length_b      6.20646026
_cell_length_c     13.45550349
_cell_angle_alpha   98.899986
_cell_angle_beta  110.831126
_cell_angle_gamma   87.242544

loop_
_atom_site_label
_atom_site_fract_x
_atom_site_fract_y
_atom_site_fract_z
C1  1.232684232532E-01  4.638690068586E-02  3.887363198748E-01
C2 -1.232684232532E-01 -4.638690068586E-02 -3.887363198748E-01
C3  1.441726602913E-01  1.611478934494E-01  3.157042056886E-01
C4 -1.441726602913E-01 -1.611478934494E-01 -3.157042056886E-01
C5  8.314362015238E-02  7.663996658212E-02  2.034632632186E-01
C6 -8.314362015238E-02 -7.663996658212E-02 -2.034632632186E-01
C7  1.037452536342E-01  1.894137726520E-01  1.273527764073E-01
C8 -1.037452536342E-01 -1.894137726520E-01 -1.273527764073E-01
C9  4.297657673385E-02  1.049169359259E-01  1.722021045455E-02
C10 -4.297657673385E-02 -1.049169359259E-01 -1.722021045455E-02
C11  6.289991421526E-02  2.181001361608E-01 -6.052476619536E-02
C12 -6.289991421526E-02 -2.181001361608E-01  6.052476619536E-02
C13 -2.207652079738E-03 -1.335486117724E-01  1.690654181147E-01
C14  2.207652079738E-03  1.335486117724E-01 -1.690654181147E-01
C15 -2.152886279654E-02 -2.477584938081E-01  2.487777949245E-01
C16  2.152886279654E-02  2.477584938081E-01 -2.487777949245E-01
C17  3.923707063387E-02 -1.611438741817E-01  3.547565365538E-01
C18 -3.923707063387E-02  1.611438741817E-01 -3.547565365538E-01
H19  1.706791901782E-01  1.123481644036E-01  4.735141079144E-01
H20 -1.706791901782E-01 -1.123481644036E-01 -4.735141079144E-01
H21  2.066850803585E-01  3.196492586699E-01  3.409189539834E-01
H22 -2.066850803585E-01 -3.196492586699E-01 -3.409189539834E-01
H23  1.679886896223E-01  3.468255048281E-01  1.530724722670E-01
H24 -1.679886896223E-01 -3.468255048281E-01 -1.530724722670E-01
H25  1.270585696931E-01  3.755663421133E-01 -3.474712096706E-02
H26 -1.270585696931E-01 -3.755663421133E-01  3.474712096706E-02
H27 -8.545072118223E-02 -4.052290777831E-01  2.229550455547E-01
H28  8.545072118223E-02  4.052290777831E-01 -2.229550455547E-01
H29  2.361582691008E-02 -2.498118314365E-01  4.141315489033E-01
H30 -2.361582691008E-02  2.498118314365E-01 -4.141315489033E-01
C31 -4.483655227049E-01 -4.242119876798E-01  3.796493232013E-01
C32  4.483655227049E-01  4.242119876798E-01 -3.796493232013E-01
C33  4.923750006230E-01 -3.156288049874E-01  2.931749724612E-01
C34 -4.923750006230E-01  3.156288049874E-01 -2.931749724612E-01
C35 -4.943003858588E-01 -4.086759834261E-01  1.922655929092E-01
C36  4.943003858588E-01  4.086759834261E-01 -1.922655929092E-01
C37  4.465425091873E-01 -3.017146081664E-01  1.027843978800E-01
C38 -4.465425091873E-01  3.017146081664E-01 -1.027843978800E-01
C39  4.610314610523E-01 -3.939038896938E-01  4.080047890649E-03
C40 -4.610314610523E-01  3.939038896938E-01 -4.080047890649E-03
C41  4.017808064808E-01 -2.866226508541E-01 -8.697621983420E-02
C42 -4.017808064808E-01  2.866226508541E-01  8.697621983420E-02
C43 -4.165634665006E-01  3.790186358388E-01  1.840818280365E-01
C44  4.165634665006E-01 -3.790186358388E-01 -1.840818280365E-01
C45 -3.561485166231E-01  2.715136476880E-01  2.773052547045E-01
C46  3.561485166231E-01 -2.715136476880E-01 -2.773052547045E-01
C47 -3.717674175498E-01  3.663406111860E-01  3.715751905102E-01
C48  3.717674175498E-01 -3.663406111860E-01 -3.715751905102E-01
H49 -4.586864526854E-01 -3.511629516449E-01  4.556646909579E-01
H50  4.586864526854E-01  3.511629516449E-01 -4.556646909579E-01
H51  4.345774193160E-01 -1.563280813567E-01  2.994944600981E-01
H52 -4.345774193160E-01  1.563280813567E-01 -2.994944600981E-01
H53  3.882677551102E-01 -1.425754633367E-01  1.089749132685E-01
H54 -3.882677551102E-01  1.425754633367E-01 -1.089749132685E-01
H55  3.434102293849E-01 -1.275322324294E-01 -8.083273265767E-02
H56 -3.434102293849E-01  1.275322324294E-01  8.083273265767E-02
H57 -2.975122280745E-01  1.127056727973E-01  2.711735524872E-01
H58  2.975122280745E-01 -1.127056727973E-01 -2.711735524872E-01
H59 -3.253694766147E-01  2.834077844395E-01  4.416592551397E-01
H60  3.253694766147E-01 -2.834077844395E-01 -4.416592551397E-01


#===END

data_OPT_STEP_32

_symmetry_space_group_name_H-M 'P 1'
_cell_length_a      8.35562739
_cell_length_b      6.20245184
_cell_length_c     13.45376597
_cell_angle_alpha   98.895256
_cell_angle_beta  110.745233
_cell_angle_gamma   87.281300

loop_
_atom_site_label
_atom_site_fract_x
_atom_site_fract_y
_atom_site_fract_z
C1  1.231849854262E-01  4.633173099756E-02  3.886062865570E-01
C2 -1.231849854262E-01 -4.633173099756E-02 -3.886062865570E-01
C3  1.439280344949E-01  1.613258158240E-01  3.155464512527E-01
C4 -1.439280344949E-01 -1.613258158240E-01 -3.155464512527E-01
C5  8.290895889221E-02  7.676066588285E-02  2.033583949632E-01
C6 -8.290895889221E-02 -7.676066588285E-02 -2.033583949632E-01
C7  1.035388954922E-01  1.896628813920E-01  1.272454182507E-01
C8 -1.035388954922E-01 -1.896628813920E-01 -1.272454182507E-01
C9  4.283977501222E-02  1.050941289428E-01  1.717378205328E-02
C10 -4.283977501222E-02 -1.050941289428E-01 -1.717378205328E-02
C11  6.299897389482E-02  2.182675966295E-01 -6.056172676248E-02
C12 -6.299897389482E-02 -2.182675966295E-01  6.056172676248E-02
C13 -2.418277503676E-03 -1.336126468763E-01  1.690432640603E-01
C14  2.418277503676E-03  1.336126468763E-01 -1.690432640603E-01
C15 -2.179136379128E-02 -2.479368974577E-01  2.487451174185E-01
C16  2.179136379128E-02  2.479368974577E-01 -2.487451174185E-01
C17  3.911001700450E-02 -1.613529364788E-01  3.546836000698E-01
C18 -3.911001700450E-02  1.613529364788E-01 -3.546836000698E-01
H19  1.707821317848E-01  1.121998813355E-01  4.733627644457E-01
H20 -1.707821317848E-01 -1.121998813355E-01 -4.733627644457E-01
H21  2.065239430651E-01  3.199039722366E-01  3.407009474578E-01
H22 -2.065239430651E-01 -3.199039722366E-01 -3.407009474578E-01
H23  1.677934205754E-01  3.471971410303E-01  1.529188697574E-01
H24 -1.677934205754E-01 -3.471971410303E-01 -1.529188697574E-01
H25  1.271281156412E-01  3.758709089614E-01 -3.485274464632E-02
H26 -1.271281156412E-01 -3.758709089614E-01  3.485274464632E-02
H27 -8.571291337601E-02 -4.055210140653E-01  2.230039741263E-01
H28  8.571291337601E-02  4.055210140653E-01 -2.230039741263E-01
H29  2.372749944224E-02 -2.502502401953E-01  4.140913727365E-01
H30 -2.372749944224E-02  2.502502401953E-01 -4.140913727365E-01
C31 -4.481528084925E-01 -4.240788310306E-01  3.796551531940E-01
C32  4.481528084925E-01  4.240788310306E-01 -3.796551531940E-01
C33  4.925164510977E-01 -3.154676377351E-01  2.932177740343E-01
C34 -4.925164510977E-01  3.154676377351E-01 -2.932177740343E-01
C35 -4.942079986417E-01 -4.085778947032E-01  1.922808247548E-01
C36  4.942079986417E-01  4.085778947032E-01 -1.922808247548E-01
C37  4.466930626464E-01 -3.015538040700E-01  1.028739541831E-01
C38 -4.466930626464E-01  3.015538040700E-01 -1.028739541831E-01
C39  4.611231110331E-01 -3.938262342194E-01  4.145154550896E-03
C40 -4.611231110331E-01  3.938262342194E-01 -4.145154550896E-03
C41  4.018037969908E-01 -2.865434793564E-01 -8.686641489504E-02
C42 -4.018037969908E-01  2.865434793564E-01  8.686641489504E-02
C43 -4.164536838352E-01  3.790511557197E-01  1.840196830845E-01
C44  4.164536838352E-01 -3.790511557197E-01 -1.840196830845E-01
C45 -3.560889178485E-01  2.714678962139E-01  2.771653754088E-01
C46  3.560889178485E-01 -2.714678962139E-01 -2.771653754088E-01
C47 -3.716242325743E-01  3.663639794432E-01  3.714743785002E-01
C48  3.716242325743E-01 -3.663639794432E-01 -3.714743785002E-01
H49 -4.582578950350E-01 -3.509710620603E-01  4.557429084181E-01
H50  4.582578950350E-01  3.509710620603E-01 -4.557429084181E-01
H51  4.347814398136E-01 -1.560874347094E-01  2.996043627278E-01
H52 -4.347814398136E-01  1.560874347094E-01 -2.996043627278E-01
H53  3.885004943425E-01 -1.423288685894E-01  1.091436003459E-01
H54 -3.885004943425E-01  1.423288685894E-01 -1.091436003459E-01
H55  3.435022060051E-01 -1.273693517773E-01 -8.064895428552E-02
H56 -3.435022060051E-01  1.273693517773E-01  8.064895428552E-02
H57 -2.973335518557E-01  1.126792970633E-01  2.710085681795E-01
H58  2.973335518557E-01 -1.126792970633E-01 -2.710085681795E-01
H59 -3.251007499566E-01  2.834734965145E-01  4.415401005574E-01
H60  3.251007499566E-01 -2.834734965145E-01 -4.415401005574E-01


#===END

data_OPT_STEP_33

_symmetry_space_group_name_H-M 'P 1'
_cell_length_a      8.34986921
_cell_length_b      6.19637060
_cell_length_c     13.44909031
_cell_angle_alpha   98.872065
_cell_angle_beta  110.542878
_cell_angle_gamma   87.353093

loop_
_atom_site_label
_atom_site_fract_x
_atom_site_fract_y
_atom_site_fract_z
C1  1.231511618718E-01  4.602932332341E-02  3.884199017540E-01
C2 -1.231511618718E-01 -4.602932332341E-02 -3.884199017540E-01
C3  1.440684346841E-01  1.611436253415E-01  3.153268372287E-01
C4 -1.440684346841E-01 -1.611436253415E-01 -3.153268372287E-01
C5  8.305226887126E-02  7.657105626080E-02  2.032406327904E-01
C6 -8.305226887126E-02 -7.657105626080E-02 -2.032406327904E-01
C7  1.036617950718E-01  1.896971570013E-01  1.270622827895E-01
C8 -1.036617950718E-01 -1.896971570013E-01 -1.270622827895E-01
C9  4.291893516200E-02  1.051571210098E-01  1.709348596207E-02
C10 -4.291893516200E-02 -1.051571210098E-01 -1.709348596207E-02
C11  6.305263238228E-02  2.185579401355E-01 -6.071021888611E-02
C12 -6.305263238228E-02 -2.185579401355E-01  6.071021888611E-02
C13 -2.390932876230E-03 -1.339550904526E-01  1.690952728818E-01
C14  2.390932876230E-03  1.339550904526E-01 -1.690952728818E-01
C15 -2.183597022826E-02 -2.484628078453E-01  2.488343517500E-01
C16  2.183597022826E-02  2.484628078453E-01 -2.488343517500E-01
C17  3.908923564956E-02 -1.618903883017E-01  3.546616838005E-01
C18 -3.908923564956E-02  1.618903883017E-01 -3.546616838005E-01
H19  1.706164250665E-01  1.119674852827E-01  4.730839306477E-01
H20 -1.706164250665E-01 -1.119674852827E-01 -4.730839306477E-01
H21  2.065055529654E-01  3.199748702443E-01  3.403314289112E-01
H22 -2.065055529654E-01 -3.199748702443E-01 -3.403314289112E-01
H23  1.679511311873E-01  3.473804550618E-01  1.526078829852E-01
H24 -1.679511311873E-01 -3.473804550618E-01 -1.526078829852E-01
H25  1.272272588933E-01  3.762924999692E-01 -3.513557438262E-02
H26 -1.272272588933E-01 -3.762924999692E-01  3.513557438262E-02
H27 -8.576167678527E-02 -4.061858461316E-01  2.232549772571E-01
H28  8.576167678527E-02  4.061858461316E-01 -2.232549772571E-01
H29  2.360598123716E-02 -2.508798383668E-01  4.141104123601E-01
H30 -2.360598123716E-02  2.508798383668E-01 -4.141104123601E-01
C31 -4.477749641743E-01 -4.238347126886E-01  3.797246976144E-01
C32  4.477749641743E-01  4.238347126886E-01 -3.797246976144E-01
C33  4.927151997723E-01 -3.152552409680E-01  2.933394631095E-01
C34 -4.927151997723E-01  3.152552409680E-01 -2.933394631095E-01
C35 -4.940665730942E-01 -4.084372679137E-01  1.923415598414E-01
C36  4.940665730942E-01  4.084372679137E-01 -1.923415598414E-01
C37  4.467079009638E-01 -3.014370233526E-01  1.030006390745E-01
C38 -4.467079009638E-01  3.014370233526E-01 -1.030006390745E-01
C39  4.610654942326E-01 -3.938074462979E-01  4.210608369048E-03
C40 -4.610654942326E-01  3.938074462979E-01 -4.210608369048E-03
C41  4.017675376106E-01 -2.864681323927E-01 -8.670762884048E-02
C42 -4.017675376106E-01  2.864681323927E-01  8.670762884048E-02
C43 -4.163480187130E-01  3.790723741131E-01  1.839225175238E-01
C44  4.163480187130E-01 -3.790723741131E-01 -1.839225175238E-01
C45 -3.559143095709E-01  2.714648663884E-01  2.769830137184E-01
C46  3.559143095709E-01 -2.714648663884E-01 -2.769830137184E-01
C47 -3.712545707706E-01  3.665171809589E-01  3.713870274502E-01
C48  3.712545707706E-01 -3.665171809589E-01 -3.713870274502E-01
H49 -4.576849750041E-01 -3.506708463889E-01  4.559018625574E-01
H50  4.576849750041E-01  3.506708463889E-01 -4.559018625574E-01
H51  4.348521534256E-01 -1.558670594702E-01  2.998014345762E-01
H52 -4.348521534256E-01  1.558670594702E-01 -2.998014345762E-01
H53  3.884450792445E-01 -1.421803438191E-01  1.093645199235E-01
H54 -3.884450792445E-01  1.421803438191E-01 -1.093645199235E-01
H55  3.436507155779E-01 -1.271252848266E-01 -8.034306979392E-02
H56 -3.436507155779E-01  1.271252848266E-01  8.034306979392E-02
H57 -2.972338839252E-01  1.125755095434E-01  2.707092611961E-01
H58  2.972338839252E-01 -1.125755095434E-01 -2.707092611961E-01
H59 -3.246747770420E-01  2.836366779276E-01  4.413940812606E-01
H60  3.246747770420E-01 -2.836366779276E-01 -4.413940812606E-01


#===END

data_OPT_STEP_34

_symmetry_space_group_name_H-M 'P 1'
_cell_length_a      8.33931718
_cell_length_b      6.18507257
_cell_length_c     13.44011298
_cell_angle_alpha   98.822623
_cell_angle_beta  110.146015
_cell_angle_gamma   87.446706

loop_
_atom_site_label
_atom_site_fract_x
_atom_site_fract_y
_atom_site_fract_z
C1  1.234396982003E-01  4.591392595597E-02  3.881926596981E-01
C2 -1.234396982003E-01 -4.591392595597E-02 -3.881926596981E-01
C3  1.442933456886E-01  1.612778397792E-01  3.149075122408E-01
C4 -1.442933456886E-01 -1.612778397792E-01 -3.149075122408E-01
C5  8.328895322774E-02  7.656304096047E-02  2.030314476261E-01
C6 -8.328895322774E-02 -7.656304096047E-02 -2.030314476261E-01
C7  1.038886800306E-01  1.898476332555E-01  1.266426216580E-01
C8 -1.038886800306E-01 -1.898476332555E-01 -1.266426216580E-01
C9  4.294002720428E-02  1.052944393796E-01  1.687120214110E-02
C10 -4.294002720428E-02 -1.052944393796E-01 -1.687120214110E-02
C11  6.290505379870E-02  2.189512184305E-01 -6.115727904400E-02
C12 -6.290505379870E-02 -2.189512184305E-01  6.115727904400E-02
C13 -2.143841278064E-03 -1.342757817226E-01  1.693313934976E-01
C14  2.143841278064E-03  1.342757817226E-01 -1.693313934976E-01
C15 -2.144154521870E-02 -2.490622975138E-01  2.492728526995E-01
C16  2.144154521870E-02  2.490622975138E-01 -2.492728526995E-01
C17  3.954096731498E-02 -1.624130028126E-01  3.548743974152E-01
C18 -3.954096731498E-02  1.624130028126E-01 -3.548743974152E-01
H19  1.708983243858E-01  1.119094646239E-01  4.726817854129E-01
H20 -1.708983243858E-01 -1.119094646239E-01 -4.726817854129E-01
H21  2.065408151649E-01  3.204478572098E-01  3.395850793717E-01
H22 -2.065408151649E-01 -3.204478572098E-01 -3.395850793717E-01
H23  1.682755929822E-01  3.477061805099E-01  1.518634035726E-01
H24 -1.682755929822E-01 -3.477061805099E-01 -1.518634035726E-01
H25  1.272668154167E-01  3.767993679058E-01 -3.590859710616E-02
H26 -1.272668154167E-01 -3.767993679058E-01  3.590859710616E-02
H27 -8.544275153290E-02 -4.069562135443E-01  2.240389918443E-01
H28  8.544275153290E-02  4.069562135443E-01 -2.240389918443E-01
H29  2.407596400277E-02 -2.515584149528E-01  4.144714038236E-01
H30 -2.407596400277E-02  2.515584149528E-01 -4.144714038236E-01
C31 -4.468216320027E-01 -4.233655630005E-01  3.799308034941E-01
C32  4.468216320027E-01  4.233655630005E-01 -3.799308034941E-01
C33  4.936309101172E-01 -3.146308539776E-01  2.937197814304E-01
C34 -4.936309101172E-01  3.146308539776E-01 -2.937197814304E-01
C35 -4.934000391426E-01 -4.080248645261E-01  1.925692385564E-01
C36  4.934000391426E-01  4.080248645261E-01 -1.925692385564E-01
C37  4.472402614820E-01 -3.009331863780E-01  1.033731512267E-01
C38 -4.472402614820E-01  3.009331863780E-01 -1.033731512267E-01
C39  4.610992122194E-01 -3.936719784155E-01  4.361523418707E-03
C40 -4.610992122194E-01  3.936719784155E-01 -4.361523418707E-03
C41  4.013230899460E-01 -2.864388627737E-01 -8.649323605419E-02
C42 -4.013230899460E-01  2.864388627737E-01  8.649323605419E-02
C43 -4.157892723422E-01  3.791810295525E-01  1.838325994222E-01
C44  4.157892723422E-01 -3.791810295525E-01 -1.838325994222E-01
C45 -3.550394833653E-01  2.715743710680E-01  2.767765046688E-01
C46  3.550394833653E-01 -2.715743710680E-01 -2.767765046688E-01
C47 -3.703287935464E-01  3.667516881329E-01  3.712885890223E-01
C48  3.703287935464E-01 -3.667516881329E-01 -3.712885890223E-01
H49 -4.564994229882E-01 -3.501201293577E-01  4.562407825368E-01
H50  4.564994229882E-01  3.501201293577E-01 -4.562407825368E-01
H51  4.358846349682E-01 -1.549956545427E-01  3.004134817810E-01
H52 -4.358846349682E-01  1.549956545427E-01 -3.004134817810E-01
H53  3.892424838743E-01 -1.413592283549E-01  1.100128578255E-01
H54 -3.892424838743E-01  1.413592283549E-01 -1.100128578255E-01
H55  3.429010104120E-01 -1.270606739255E-01 -7.998948931997E-02
H56 -3.429010104120E-01  1.270606739255E-01  7.998948931997E-02
H57 -2.963142561602E-01  1.125264188875E-01  2.703101126623E-01
H58  2.963142561602E-01 -1.125264188875E-01 -2.703101126623E-01
H59 -3.237510633456E-01  2.837882464261E-01  4.411589879489E-01
H60  3.237510633456E-01 -2.837882464261E-01 -4.411589879489E-01


#===END

data_OPT_STEP_35

_symmetry_space_group_name_H-M 'P 1'
_cell_length_a      8.33853593
_cell_length_b      6.16290694
_cell_length_c     13.42025814
_cell_angle_alpha   98.779390
_cell_angle_beta  109.370967
_cell_angle_gamma   87.591915

loop_
_atom_site_label
_atom_site_fract_x
_atom_site_fract_y
_atom_site_fract_z
C1  1.236193623488E-01  4.733008395290E-02  3.879023672508E-01
C2 -1.236193623488E-01 -4.733008395290E-02 -3.879023672508E-01
C3  1.444023421133E-01  1.627159562186E-01  3.141402289914E-01
C4 -1.444023421133E-01 -1.627159562186E-01 -3.141402289914E-01
C5  8.319353464089E-02  7.757236584155E-02  2.026413501690E-01
C6 -8.319353464089E-02 -7.757236584155E-02 -2.026413501690E-01
C7  1.037063800420E-01  1.907912189389E-01  1.257456450284E-01
C8 -1.037063800420E-01 -1.907912189389E-01 -1.257456450284E-01
C9  4.290450665977E-02  1.055508635439E-01  1.639256809122E-02
C10 -4.290450665977E-02 -1.055508635439E-01 -1.639256809122E-02
C11  6.276909176174E-02  2.191457665089E-01 -6.213577749343E-02
C12 -6.276909176174E-02 -2.191457665089E-01  6.213577749343E-02
C13 -2.186305224845E-03 -1.337953010685E-01  1.698819994601E-01
C14  2.186305224845E-03  1.337953010685E-01 -1.698819994601E-01
C15 -2.129470285799E-02 -2.486197283825E-01  2.503173155607E-01
C16  2.129470285799E-02  2.486197283825E-01 -2.503173155607E-01
C17  3.970121885415E-02 -1.614552146217E-01  3.554973724959E-01
C18 -3.970121885415E-02  1.614552146217E-01 -3.554973724959E-01
H19  1.711073501240E-01  1.136446235995E-01  4.720742269345E-01
H20 -1.711073501240E-01 -1.136446235995E-01 -4.720742269345E-01
H21  2.069076847798E-01  3.221282972061E-01  3.381801814878E-01
H22 -2.069076847798E-01 -3.221282972061E-01 -3.381801814878E-01
H23  1.679298560916E-01  3.491236641014E-01  1.502250336388E-01
H24 -1.679298560916E-01 -3.491236641014E-01 -1.502250336388E-01
H25  1.268671291420E-01  3.775121326615E-01 -3.763656856176E-02
H26 -1.268671291420E-01 -3.775121326615E-01  3.763656856176E-02
H27 -8.518838045336E-02 -4.069614492778E-01  2.258063393731E-01
H28  8.518838045336E-02  4.069614492778E-01 -2.258063393731E-01
H29  2.451564061987E-02 -2.507658899548E-01  4.154685419502E-01
H30 -2.451564061987E-02  2.507658899548E-01 -4.154685419502E-01
C31 -4.451769332910E-01 -4.227921689586E-01  3.803702820469E-01
C32  4.451769332910E-01  4.227921689586E-01 -3.803702820469E-01
C33  4.945229812181E-01 -3.141700356624E-01  2.943878156090E-01
C34 -4.945229812181E-01  3.141700356624E-01 -2.943878156090E-01
C35 -4.927797685918E-01 -4.077895467754E-01  1.929274832832E-01
C36  4.927797685918E-01  4.077895467754E-01 -1.929274832832E-01
C37  4.471770925406E-01 -3.007157287191E-01  1.039407235975E-01
C38 -4.471770925406E-01  3.007157287191E-01 -1.039407235975E-01
C39  4.610159564282E-01 -3.934913076642E-01  4.679965102600E-03
C40 -4.610159564282E-01  3.934913076642E-01 -4.679965102600E-03
C41  4.009948266669E-01 -2.860233452625E-01 -8.586752966948E-02
C42 -4.009948266669E-01  2.860233452625E-01  8.586752966948E-02
C43 -4.148365275163E-01  3.791528561210E-01  1.836033813070E-01
C44  4.148365275163E-01 -3.791528561210E-01 -1.836033813070E-01
C45 -3.534705987506E-01  2.715325400632E-01  2.763123224333E-01
C46  3.534705987506E-01 -2.715325400632E-01 -2.763123224333E-01
C47 -3.683104168877E-01  3.670697065091E-01  3.711674888217E-01
C48  3.683104168877E-01 -3.670697065091E-01 -3.711674888217E-01
H49 -4.543020593729E-01 -3.492738394952E-01  4.569941828265E-01
H50  4.543020593729E-01  3.492738394952E-01 -4.569941828265E-01
H51  4.364457460022E-01 -1.543618134510E-01  3.014845852098E-01
H52 -4.364457460022E-01  1.543618134510E-01 -3.014845852098E-01
H53  3.888553092418E-01 -1.409620685888E-01  1.109978886081E-01
H54 -3.888553092418E-01  1.409620685888E-01 -1.109978886081E-01
H55  3.427656802836E-01 -1.262040717408E-01 -7.883806939213E-02
H56 -3.427656802836E-01  1.262040717408E-01  7.883806939213E-02
H57 -2.947487029172E-01  1.121344830143E-01  2.693700410309E-01
H58  2.947487029172E-01 -1.121344830143E-01 -2.693700410309E-01
H59 -3.210000753054E-01  2.842987068650E-01  4.409350445345E-01
H60  3.210000753054E-01 -2.842987068650E-01 -4.409350445345E-01


#===END

data_OPT_STEP_36

_symmetry_space_group_name_H-M 'P 1'
_cell_length_a      8.33915469
_cell_length_b      6.11109755
_cell_length_c     13.36394858
_cell_angle_alpha   98.000204
_cell_angle_beta  107.984540
_cell_angle_gamma   88.118417

loop_
_atom_site_label
_atom_site_fract_x
_atom_site_fract_y
_atom_site_fract_z
C1  1.259585456799E-01  4.670695357104E-02  3.877319097603E-01
C2 -1.259585456799E-01 -4.670695357104E-02 -3.877319097603E-01
C3  1.462021386399E-01  1.628727816770E-01  3.124780087616E-01
C4 -1.462021386399E-01 -1.628727816770E-01 -3.124780087616E-01
C5  8.448576474924E-02  7.745967176277E-02  2.019172671412E-01
C6 -8.448576474924E-02 -7.745967176277E-02 -2.019172671412E-01
C7  1.039449572893E-01  1.916744111941E-01  1.234623743017E-01
C8 -1.039449572893E-01 -1.916744111941E-01 -1.234623743017E-01
C9  4.264626576005E-02  1.061852101127E-01  1.506516089249E-02
C10 -4.264626576005E-02 -1.061852101127E-01 -1.506516089249E-02
C11  6.172046736602E-02  2.206194428976E-01 -6.499273803312E-02
C12 -6.172046736602E-02 -2.206194428976E-01  6.499273803312E-02
C13 -6.229193790400E-04 -1.350379286061E-01  1.717863691710E-01
C14  6.229193790400E-04  1.350379286061E-01 -1.717863691710E-01
C15 -1.911063152197E-02 -2.506588605463E-01  2.536971271891E-01
C16  1.911063152197E-02  2.506588605463E-01 -2.536971271891E-01
C17  4.217161766801E-02 -1.631294957173E-01  3.578773094613E-01
C18 -4.217161766801E-02  1.631294957173E-01 -3.578773094613E-01
H19  1.733319222466E-01  1.133889530651E-01  4.711399253505E-01
H20 -1.733319222466E-01 -1.133889530651E-01 -4.711399253505E-01
H21  2.086247661404E-01  3.231066646905E-01  3.345263936777E-01
H22 -2.086247661404E-01 -3.231066646905E-01 -3.345263936777E-01
H23  1.678748699045E-01  3.509069069119E-01  1.459279485169E-01
H24 -1.678748699045E-01 -3.509069069119E-01 -1.459279485169E-01
H25  1.255042344392E-01  3.798867940644E-01 -4.251598425166E-02
H26 -1.255042344392E-01 -3.798867940644E-01  4.251598425166E-02
H27 -8.279830418988E-02 -4.098009522550E-01  2.312096429338E-01
H28  8.279830418988E-02  4.098009522550E-01 -2.312096429338E-01
H29  2.727385108447E-02 -2.528980861533E-01  4.190278189934E-01
H30 -2.727385108447E-02  2.528980861533E-01 -4.190278189934E-01
C31 -4.419890262833E-01 -4.210574988478E-01  3.814111484487E-01
C32  4.419890262833E-01  4.210574988478E-01 -3.814111484487E-01
C33  4.966248160148E-01 -3.125544772063E-01  2.950809048623E-01
C34 -4.966248160148E-01  3.125544772063E-01 -2.950809048623E-01
C35 -4.914105439054E-01 -4.068391311262E-01  1.934096870890E-01
C36  4.914105439054E-01  4.068391311262E-01 -1.934096870890E-01
C37  4.475608228367E-01 -2.998609282035E-01  1.041038472438E-01
C38 -4.475608228367E-01  2.998609282035E-01 -1.041038472438E-01
C39  4.606233240949E-01 -3.933304482381E-01  4.576524124864E-03
C40 -4.606233240949E-01  3.933304482381E-01 -4.576524124864E-03
C41  3.996691952748E-01 -2.859100029734E-01 -8.628730151982E-02
C42 -3.996691952748E-01  2.859100029734E-01  8.628730151982E-02
C43 -4.132734390712E-01  3.794488462867E-01  1.841556272801E-01
C44  4.132734390712E-01 -3.794488462867E-01 -1.841556272801E-01
C45 -3.510995809851E-01  2.717805473007E-01  2.771216497130E-01
C46  3.510995809851E-01 -2.717805473007E-01 -2.771216497130E-01
C47 -3.650597293363E-01  3.681354780044E-01  3.722898261758E-01
C48  3.650597293363E-01 -3.681354780044E-01 -3.722898261758E-01
H49 -4.507563249416E-01 -3.473904928120E-01  4.581566902229E-01
H50  4.507563249416E-01  3.473904928120E-01 -4.581566902229E-01
H51  4.384033029818E-01 -1.522662098654E-01  3.021015047697E-01
H52 -4.384033029818E-01  1.522662098654E-01 -3.021015047697E-01
H53  3.887893641873E-01 -1.397755677662E-01  1.110145113495E-01
H54 -3.887893641873E-01  1.397755677662E-01 -1.110145113495E-01
H55  3.412833673185E-01 -1.256143045155E-01 -7.932156019036E-02
H56 -3.412833673185E-01  1.256143045155E-01  7.932156019036E-02
H57 -2.921401231051E-01  1.119477387852E-01  2.703028996297E-01
H58  2.921401231051E-01 -1.119477387852E-01 -2.703028996297E-01
H59 -3.174213028403E-01  2.852980171738E-01  4.422522244690E-01
H60  3.174213028403E-01 -2.852980171738E-01 -4.422522244690E-01


#===END

data_OPT_STEP_37

_symmetry_space_group_name_H-M 'P 1'
_cell_length_a      8.31067379
_cell_length_b      6.19218724
_cell_length_c     13.39031658
_cell_angle_alpha   99.256933
_cell_angle_beta  108.523957
_cell_angle_gamma   87.505325

loop_
_atom_site_label
_atom_site_fract_x
_atom_site_fract_y
_atom_site_fract_z
C1  1.228876461794E-01  4.996633929964E-02  3.874699314586E-01
C2 -1.228876461794E-01 -4.996633929964E-02 -3.874699314586E-01
C3  1.450842643089E-01  1.634109840841E-01  3.137624432861E-01
C4 -1.450842643089E-01 -1.634109840841E-01 -3.137624432861E-01
C5  8.489251962587E-02  7.733160003097E-02  2.025542701305E-01
C6 -8.489251962587E-02 -7.733160003097E-02 -2.025542701305E-01
C7  1.057484731328E-01  1.893849684225E-01  1.256176422989E-01
C8 -1.057484731328E-01 -1.893849684225E-01 -1.256176422989E-01
C9  4.366922934906E-02  1.046864526995E-01  1.632657997877E-02
C10 -4.366922934906E-02 -1.046864526995E-01 -1.632657997877E-02
C11  6.272574267958E-02  2.177573374482E-01 -6.237319917446E-02
C12 -6.272574267958E-02 -2.177573374482E-01  6.237319917446E-02
C13 -1.192774707550E-03 -1.327821212404E-01  1.699974846009E-01
C14  1.192774707550E-03  1.327821212404E-01 -1.699974846009E-01
C15 -2.053518437855E-02 -2.463652173854E-01  2.505349168009E-01
C16  2.053518437855E-02  2.463652173854E-01 -2.505349168009E-01
C17  3.973304941923E-02 -1.584756214178E-01  3.554233518762E-01
C18 -3.973304941923E-02  1.584756214178E-01 -3.554233518762E-01
H19  1.704522929801E-01  1.164361543355E-01  4.715312759757E-01
H20 -1.704522929801E-01 -1.164361543355E-01 -4.715312759757E-01
H21  2.076035943966E-01  3.221192047407E-01  3.374941420933E-01
H22 -2.076035943966E-01 -3.221192047407E-01 -3.374941420933E-01
H23  1.709136224057E-01  3.465103160101E-01  1.499513404716E-01
H24 -1.709136224057E-01 -3.465103160101E-01 -1.499513404716E-01
H25  1.276722427902E-01  3.749924380574E-01 -3.794225270408E-02
H26 -1.276722427902E-01 -3.749924380574E-01  3.794225270408E-02
H27 -8.496097866435E-02 -4.037839800387E-01  2.262171257945E-01
H28  8.496097866435E-02  4.037839800387E-01 -2.262171257945E-01
H29  2.448863955401E-02 -2.468612211417E-01  4.154297820931E-01
H30 -2.448863955401E-02  2.468612211417E-01 -4.154297820931E-01
C31 -4.460473347207E-01 -4.232776884799E-01  3.805577754658E-01
C32  4.460473347207E-01  4.232776884799E-01 -3.805577754658E-01
C33  4.943420897372E-01 -3.146916584000E-01  2.956446795295E-01
C34 -4.943420897372E-01  3.146916584000E-01 -2.956446795295E-01
C35 -4.924876407129E-01 -4.078208122809E-01  1.935907172196E-01
C36  4.924876407129E-01  4.078208122809E-01 -1.935907172196E-01
C37  4.472618700953E-01 -3.013703349318E-01  1.054077875160E-01
C38 -4.472618700953E-01  3.013703349318E-01 -1.054077875160E-01
C39  4.614196244897E-01 -3.937254775694E-01  5.588117234113E-03
C40 -4.614196244897E-01  3.937254775694E-01 -5.588117234113E-03
C41  4.008090851197E-01 -2.870203875098E-01 -8.423088844272E-02
C42 -4.008090851197E-01  2.870203875098E-01  8.423088844272E-02
C43 -4.137011664409E-01  3.803603673847E-01  1.828414109075E-01
C44  4.137011664409E-01 -3.803603673847E-01 -1.828414109075E-01
C45 -3.524212928763E-01  2.731342874571E-01  2.747369023846E-01
C46  3.524212928763E-01 -2.731342874571E-01 -2.747369023846E-01
C47 -3.687980998920E-01  3.674637284733E-01  3.697538350218E-01
C48  3.687980998920E-01 -3.674637284733E-01 -3.697538350218E-01
H49 -4.549086992830E-01 -3.498939019834E-01  4.578114959832E-01
H50  4.549086992830E-01  3.498939019834E-01 -4.578114959832E-01
H51  4.358787630031E-01 -1.556800179212E-01  3.038748093085E-01
H52 -4.358787630031E-01  1.556800179212E-01 -3.038748093085E-01
H53  3.891205842989E-01 -1.421465205058E-01  1.137198317896E-01
H54 -3.891205842989E-01  1.421465205058E-01 -1.137198317896E-01
H55  3.420815276989E-01 -1.280861693806E-01 -7.614392068692E-02
H56 -3.420815276989E-01  1.280861693806E-01  7.614392068692E-02
H57 -2.940966788616E-01  1.141272512240E-01  2.664826277980E-01
H58  2.940966788616E-01 -1.141272512240E-01 -2.664826277980E-01
H59 -3.219424695815E-01  2.847056150321E-01  4.387170671106E-01
H60  3.219424695815E-01 -2.847056150321E-01 -4.387170671106E-01


#===END

data_OPT_STEP_38

_symmetry_space_group_name_H-M 'P 1'
_cell_length_a      8.33412892
_cell_length_b      6.13446935
_cell_length_c     13.36402048
_cell_angle_alpha   98.249807
_cell_angle_beta  108.103994
_cell_angle_gamma   87.988163

loop_
_atom_site_label
_atom_site_fract_x
_atom_site_fract_y
_atom_site_fract_z
C1  1.245816732410E-01  4.761600463271E-02  3.875419074847E-01
C2 -1.245816732410E-01 -4.761600463271E-02 -3.875419074847E-01
C3  1.459679456902E-01  1.626716287782E-01  3.126865868475E-01
C4 -1.459679456902E-01 -1.626716287782E-01 -3.126865868475E-01
C5  8.507804673687E-02  7.691915677588E-02  2.020559598939E-01
C6 -8.507804673687E-02 -7.691915677588E-02 -2.020559598939E-01
C7  1.050632223544E-01  1.905389468386E-01  1.239715784755E-01
C8 -1.050632223544E-01 -1.905389468386E-01 -1.239715784755E-01
C9  4.311563159136E-02  1.056416912163E-01  1.535333829948E-02
C10 -4.311563159136E-02 -1.056416912163E-01 -1.535333829948E-02
C11  6.165367890382E-02  2.200934106343E-01 -6.445845431647E-02
C12 -6.165367890382E-02 -2.200934106343E-01  6.445845431647E-02
C13 -3.512489163910E-04 -1.348377382056E-01  1.714182023576E-01
C14  3.512489163910E-04  1.348377382056E-01 -1.714182023576E-01
C15 -1.898377096412E-02 -2.499945456177E-01  2.530501715467E-01
C16  1.898377096412E-02  2.499945456177E-01 -2.530501715467E-01
C17  4.139369943649E-02 -1.620571859865E-01  3.572935944408E-01
C18 -4.139369943649E-02  1.620571859865E-01 -3.572935944408E-01
H19  1.719049662047E-01  1.142417293185E-01  4.710771427096E-01
H20 -1.719049662047E-01 -1.142417293185E-01 -4.710771427096E-01
H21  2.083167595309E-01  3.224932853971E-01  3.349887014788E-01
H22 -2.083167595309E-01 -3.224932853971E-01 -3.349887014788E-01
H23  1.693928480669E-01  3.491231594609E-01  1.468346454243E-01
H24 -1.693928480669E-01 -3.491231594609E-01 -1.468346454243E-01
H25  1.260136565725E-01  3.786196778736E-01 -4.153058397204E-02
H26 -1.260136565725E-01 -3.786196778736E-01  4.153058397204E-02
H27 -8.293393798366E-02 -4.085878109872E-01  2.302127242402E-01
H28  8.293393798366E-02  4.085878109872E-01 -2.302127242402E-01
H29  2.618059384091E-02 -2.513254777342E-01  4.181815027905E-01
H30 -2.618059384091E-02  2.513254777342E-01 -4.181815027905E-01
C31 -4.437320408681E-01 -4.218735348604E-01  3.809818945666E-01
C32  4.437320408681E-01  4.218735348604E-01 -3.809818945666E-01
C33  4.957169785049E-01 -3.132801065886E-01  2.950569756230E-01
C34 -4.957169785049E-01  3.132801065886E-01 -2.950569756230E-01
C35 -4.916893678565E-01 -4.070804035668E-01  1.934082240850E-01
C36  4.916893678565E-01  4.070804035668E-01 -1.934082240850E-01
C37  4.473874871265E-01 -3.004445731529E-01  1.043142000346E-01
C38 -4.473874871265E-01  3.004445731529E-01 -1.043142000346E-01
C39  4.611275281072E-01 -3.933818189000E-01  4.863000833038E-03
C40 -4.611275281072E-01  3.933818189000E-01 -4.863000833038E-03
C41  4.001520486782E-01 -2.863158183451E-01 -8.580244848469E-02
C42 -4.001520486782E-01  2.863158183451E-01  8.580244848469E-02
C43 -4.128433425923E-01  3.801427728345E-01  1.839916173020E-01
C44  4.128433425923E-01 -3.801427728345E-01 -1.839916173020E-01
C45 -3.509569985439E-01  2.726805860627E-01  2.767283944211E-01
C46  3.509569985439E-01 -2.726805860627E-01 -2.767283944211E-01
C47 -3.665418982322E-01  3.679176865938E-01  3.715392522060E-01
C48  3.665418982322E-01 -3.679176865938E-01 -3.715392522060E-01
H49 -4.522066462081E-01 -3.481232355425E-01  4.578995522310E-01
H50  4.522066462081E-01  3.481232355425E-01 -4.578995522310E-01
H51  4.370453222794E-01 -1.536280281394E-01  3.022410129170E-01
H52 -4.370453222794E-01  1.536280281394E-01 -3.022410129170E-01
H53  3.888766262931E-01 -1.406624529983E-01  1.115325750356E-01
H54 -3.888766262931E-01  1.406624529983E-01 -1.115325750356E-01
H55  3.413646365490E-01 -1.266504897440E-01 -7.869784507666E-02
H56 -3.413646365490E-01  1.266504897440E-01  7.869784507666E-02
H57 -2.926381070805E-01  1.129361290654E-01  2.695008774692E-01
H58  2.926381070805E-01 -1.129361290654E-01 -2.695008774692E-01
H59 -3.193412470795E-01  2.850233780065E-01  4.412147740287E-01
H60  3.193412470795E-01 -2.850233780065E-01 -4.412147740287E-01


#===END

data_OPT_STEP_39

_symmetry_space_group_name_H-M 'P 1'
_cell_length_a      8.32901679
_cell_length_b      6.14057750
_cell_length_c     13.36308553
_cell_angle_alpha   98.279176
_cell_angle_beta  108.100276
_cell_angle_gamma   87.974677

loop_
_atom_site_label
_atom_site_fract_x
_atom_site_fract_y
_atom_site_fract_z
C1  1.249901396399E-01  4.743061754293E-02  3.875733488417E-01
C2 -1.249901396399E-01 -4.743061754293E-02 -3.875733488417E-01
C3  1.459428005173E-01  1.626343519710E-01  3.126725422603E-01
C4 -1.459428005173E-01 -1.626343519710E-01 -3.126725422603E-01
C5  8.467789359246E-02  7.714988078810E-02  2.020043432052E-01
C6 -8.467789359246E-02 -7.714988078810E-02 -2.020043432052E-01
C7  1.047317749428E-01  1.906287938471E-01  1.239435242793E-01
C8 -1.047317749428E-01 -1.906287938471E-01 -1.239435242793E-01
C9  4.295752778646E-02  1.056633048900E-01  1.534727302538E-02
C10 -4.295752778646E-02 -1.056633048900E-01 -1.534727302538E-02
C11  6.186949897010E-02  2.197931293148E-01 -6.439340197184E-02
C12 -6.186949897010E-02 -2.197931293148E-01  6.439340197184E-02
C13 -6.837702452220E-04 -1.344989598533E-01  1.713365156077E-01
C14  6.837702452220E-04  1.344989598533E-01 -1.713365156077E-01
C15 -1.934501547003E-02 -2.495087189333E-01  2.529747088274E-01
C16  1.934501547003E-02  2.495087189333E-01 -2.529747088274E-01
C17  4.142830304263E-02 -1.618605488827E-01  3.572649163826E-01
C18 -4.142830304263E-02  1.618605488827E-01 -3.572649163826E-01
H19  1.722955208800E-01  1.140618277016E-01  4.711141326746E-01
H20 -1.722955208800E-01 -1.140618277016E-01 -4.711141326746E-01
H21  2.084369449027E-01  3.222629794218E-01  3.350450869603E-01
H22 -2.084369449027E-01 -3.222629794218E-01 -3.350450869603E-01
H23  1.691331735027E-01  3.490625053118E-01  1.468316915969E-01
H24 -1.691331735027E-01 -3.490625053118E-01 -1.468316915969E-01
H25  1.259633035470E-01  3.783606916284E-01 -4.146657201929E-02
H26 -1.259633035470E-01 -3.783606916284E-01  4.146657201929E-02
H27 -8.338954238067E-02 -4.079530525721E-01  2.300743307211E-01
H28  8.338954238067E-02  4.079530525721E-01 -2.300743307211E-01
H29  2.620052712672E-02 -2.510735568244E-01  4.181169604540E-01
H30 -2.620052712672E-02  2.510735568244E-01 -4.181169604540E-01
C31 -4.436308404460E-01 -4.217968682225E-01  3.809929264882E-01
C32  4.436308404460E-01  4.217968682225E-01 -3.809929264882E-01
C33  4.954491258905E-01 -3.135304985325E-01  2.950329227107E-01
C34 -4.954491258905E-01  3.135304985325E-01 -2.950329227107E-01
C35 -4.921476535765E-01 -4.073792802748E-01  1.933096072255E-01
C36  4.921476535765E-01  4.073792802748E-01 -1.933096072255E-01
C37  4.472483560222E-01 -3.006600390048E-01  1.043278499891E-01
C38 -4.472483560222E-01  3.006600390048E-01 -1.043278499891E-01
C39  4.609491085083E-01 -3.935528181198E-01  4.843291315278E-03
C40 -4.609491085083E-01  3.935528181198E-01 -4.843291315278E-03
C41  4.003139369078E-01 -2.864208705319E-01 -8.571680621077E-02
C42 -4.003139369078E-01  2.864208705319E-01  8.571680621077E-02
C43 -4.137303081006E-01  3.797947279378E-01  1.837400976864E-01
C44  4.137303081006E-01 -3.797947279378E-01 -1.837400976864E-01
C45 -3.517310503746E-01  2.725132064292E-01  2.764904723436E-01
C46  3.517310503746E-01 -2.725132064292E-01 -2.764904723436E-01
C47 -3.665170769481E-01  3.681232974181E-01  3.715071461321E-01
C48  3.665170769481E-01 -3.681232974181E-01 -3.715071461321E-01
H49 -4.523999705193E-01 -3.481703656346E-01  4.578512598037E-01
H50  4.523999705193E-01  3.481703656346E-01 -4.578512598037E-01
H51  4.369084082183E-01 -1.539311756502E-01  3.022839120459E-01
H52 -4.369084082183E-01  1.539311756502E-01 -3.022839120459E-01
H53  3.887650394007E-01 -1.409876464100E-01  1.115964563682E-01
H54 -3.887650394007E-01  1.409876464100E-01 -1.115964563682E-01
H55  3.415827043420E-01 -1.268529757963E-01 -7.856095450943E-02
H56 -3.415827043420E-01  1.268529757963E-01  7.856095450943E-02
H57 -2.930242407113E-01  1.130675591008E-01  2.693233001787E-01
H58  2.930242407113E-01 -1.130675591008E-01 -2.693233001787E-01
H59 -3.189718441169E-01  2.854837099339E-01  4.412538423186E-01
H60  3.189718441169E-01 -2.854837099339E-01 -4.412538423186E-01


#===END

data_OPT_STEP_40

_symmetry_space_group_name_H-M 'P 1'
_cell_length_a      8.31454499
_cell_length_b      6.15009633
_cell_length_c     13.36207199
_cell_angle_alpha   98.316870
_cell_angle_beta  108.010583
_cell_angle_gamma   87.917925

loop_
_atom_site_label
_atom_site_fract_x
_atom_site_fract_y
_atom_site_fract_z
C1  1.261849030328E-01  4.713984766313E-02  3.876499324828E-01
C2 -1.261849030328E-01 -4.713984766313E-02 -3.876499324828E-01
C3  1.464722313886E-01  1.624370734738E-01  3.126326405687E-01
C4 -1.464722313886E-01 -1.624370734738E-01 -3.126326405687E-01
C5  8.471350050935E-02  7.730439330604E-02  2.019714496257E-01
C6 -8.471350050935E-02 -7.730439330604E-02 -2.019714496257E-01
C7  1.043738718190E-01  1.906774002557E-01  1.237976589514E-01
C8 -1.043738718190E-01 -1.906774002557E-01 -1.237976589514E-01
C9  4.298601750829E-02  1.054526833712E-01  1.529161744629E-02
C10 -4.298601750829E-02 -1.054526833712E-01 -1.529161744629E-02
C11  6.239477215432E-02  2.189300360670E-01 -6.445201061424E-02
C12 -6.239477215432E-02 -2.189300360670E-01  6.445201061424E-02
C13 -8.552488135149E-04 -1.338599194107E-01  1.713689445540E-01
C14  8.552488135149E-04  1.338599194107E-01 -1.713689445540E-01
C15 -1.932080510860E-02 -2.486315289673E-01  2.530938662860E-01
C16  1.932080510860E-02  2.486315289673E-01 -2.530938662860E-01
C17  4.243738001042E-02 -1.616452099518E-01  3.574254821975E-01
C18 -4.243738001042E-02  1.616452099518E-01 -3.574254821975E-01
H19  1.739501219903E-01  1.134620579454E-01  4.711935320172E-01
H20 -1.739501219903E-01 -1.134620579454E-01 -4.711935320172E-01
H21  2.089072129982E-01  3.218159371920E-01  3.350082210724E-01
H22 -2.089072129982E-01 -3.218159371920E-01 -3.350082210724E-01
H23  1.689396495616E-01  3.487230400991E-01  1.465987819101E-01
H24 -1.689396495616E-01 -3.487230400991E-01 -1.465987819101E-01
H25  1.263528609183E-01  3.773035699351E-01 -4.161644509289E-02
H26 -1.263528609183E-01 -3.773035699351E-01  4.161644509289E-02
H27 -8.361402091667E-02 -4.066815830427E-01  2.301768658665E-01
H28  8.361402091667E-02  4.066815830427E-01 -2.301768658665E-01
H29  2.757567975165E-02 -2.508702372238E-01  4.183296684818E-01
H30 -2.757567975165E-02  2.508702372238E-01 -4.183296684818E-01
C31 -4.432010422618E-01 -4.214263671234E-01  3.811614396846E-01
C32  4.432010422618E-01  4.214263671234E-01 -3.811614396846E-01
C33  4.961052013370E-01 -3.131249326666E-01  2.953219680542E-01
C34 -4.961052013370E-01  3.131249326666E-01 -2.953219680542E-01
C35 -4.916465641282E-01 -4.070611628103E-01  1.934986156270E-01
C36  4.916465641282E-01  4.070611628103E-01 -1.934986156270E-01
C37  4.474551118966E-01 -3.006074453225E-01  1.045130716366E-01
C38 -4.474551118966E-01  3.006074453225E-01 -1.045130716366E-01
C39  4.608290828290E-01 -3.936785805261E-01  4.867393215091E-03
C40 -4.608290828290E-01  3.936785805261E-01 -4.867393215091E-03
C41  3.998473819813E-01 -2.868466330999E-01 -8.570480249052E-02
C42 -3.998473819813E-01  2.868466330999E-01  8.570480249052E-02
C43 -4.132630545957E-01  3.802304761297E-01  1.837937117462E-01
C44  4.132630545957E-01 -3.802304761297E-01 -1.837937117462E-01
C45 -3.518348161326E-01  2.727824357722E-01  2.763553050784E-01
C46  3.518348161326E-01 -2.727824357722E-01 -2.763553050784E-01
C47 -3.665119169887E-01  3.684693447995E-01  3.714562642185E-01
C48  3.665119169887E-01 -3.684693447995E-01 -3.714562642185E-01
H49 -4.526003073318E-01 -3.481060387181E-01  4.579141124807E-01
H50  4.526003073318E-01  3.481060387181E-01 -4.579141124807E-01
H51  4.380352230033E-01 -1.534232504749E-01  3.027770108299E-01
H52 -4.380352230033E-01  1.534232504749E-01 -3.027770108299E-01
H53  3.885055778339E-01 -1.412735081166E-01  1.117638029117E-01
H54 -3.885055778339E-01  1.412735081166E-01 -1.117638029117E-01
H55  3.414255116095E-01 -1.272457952189E-01 -7.838201794576E-02
H56 -3.414255116095E-01  1.272457952189E-01  7.838201794576E-02
H57 -2.932082043718E-01  1.134200624331E-01  2.690685470217E-01
H58  2.932082043718E-01 -1.134200624331E-01 -2.690685470217E-01
H59 -3.198720965389E-01  2.854830348166E-01  4.409389429945E-01
H60  3.198720965389E-01 -2.854830348166E-01 -4.409389429945E-01


#===END

data_OPT_STEP_41

_symmetry_space_group_name_H-M 'P 1'
_cell_length_a      8.31141456
_cell_length_b      6.15259140
_cell_length_c     13.36183481
_cell_angle_alpha   98.308707
_cell_angle_beta  107.985576
_cell_angle_gamma   87.950520

loop_
_atom_site_label
_atom_site_fract_x
_atom_site_fract_y
_atom_site_fract_z
C1  1.262023843789E-01  4.701942336043E-02  3.876021210475E-01
C2 -1.262023843789E-01 -4.701942336043E-02 -3.876021210475E-01
C3  1.464531737725E-01  1.623487869751E-01  3.125848949993E-01
C4 -1.464531737725E-01 -1.623487869751E-01 -3.125848949993E-01
C5  8.468425808143E-02  7.727381890525E-02  2.019429746440E-01
C6 -8.468425808143E-02 -7.727381890525E-02 -2.019429746440E-01
C7  1.043816123713E-01  1.906237528912E-01  1.237706339860E-01
C8 -1.043816123713E-01 -1.906237528912E-01 -1.237706339860E-01
C9  4.294351664222E-02  1.054584102567E-01  1.527760818476E-02
C10 -4.294351664222E-02 -1.054584102567E-01 -1.527760818476E-02
C11  6.229536551711E-02  2.189651700362E-01 -6.447587889459E-02
C12 -6.229536551711E-02 -2.189651700362E-01  6.447587889459E-02
C13 -8.076079984297E-04 -1.338905131242E-01  1.713702173813E-01
C14  8.076079984297E-04  1.338905131242E-01 -1.713702173813E-01
C15 -1.931254694124E-02 -2.486605734935E-01  2.530827715414E-01
C16  1.931254694124E-02  2.486605734935E-01 -2.530827715414E-01
C17  4.238166452530E-02 -1.616780379530E-01  3.573904426987E-01
C18 -4.238166452530E-02  1.616780379530E-01 -3.573904426987E-01
H19  1.739504062460E-01  1.133247531544E-01  4.711292134599E-01
H20 -1.739504062460E-01 -1.133247531544E-01 -4.711292134599E-01
H21  2.089278554071E-01  3.216768846446E-01  3.349628487216E-01
H22 -2.089278554071E-01 -3.216768846446E-01 -3.349628487216E-01
H23  1.689640274029E-01  3.486316569410E-01  1.465494151142E-01
H24 -1.689640274029E-01 -3.486316569410E-01 -1.465494151142E-01
H25  1.262556178663E-01  3.773137667280E-01 -4.165748056273E-02
H26 -1.262556178663E-01 -3.773137667280E-01  4.165748056273E-02
H27 -8.362481921493E-02 -4.066642605699E-01  2.301747078768E-01
H28  8.362481921493E-02  4.066642605699E-01 -2.301747078768E-01
H29  2.745150325644E-02 -2.508613810579E-01  4.182927204040E-01
H30 -2.745150325644E-02  2.508613810579E-01 -4.182927204040E-01
C31 -4.431576229462E-01 -4.213618557029E-01  3.811707563966E-01
C32  4.431576229462E-01  4.213618557029E-01 -3.811707563966E-01
C33  4.959741715010E-01 -3.132478113395E-01  2.952891195465E-01
C34 -4.959741715010E-01  3.132478113395E-01 -2.952891195465E-01
C35 -4.917453937355E-01 -4.071299747027E-01  1.934754808657E-01
C36  4.917453937355E-01  4.071299747027E-01 -1.934754808657E-01
C37  4.474055947974E-01 -3.007272611843E-01  1.045054474787E-01
C38 -4.474055947974E-01  3.007272611843E-01 -1.045054474787E-01
C39  4.608008756705E-01 -3.937488179011E-01  4.861158985647E-03
C40 -4.608008756705E-01  3.937488179011E-01 -4.861158985647E-03
C41  3.998555266493E-01 -2.869784195921E-01 -8.570006963168E-02
C42 -3.998555266493E-01  2.869784195921E-01  8.570006963168E-02
C43 -4.133809414850E-01  3.802683153920E-01  1.837648294939E-01
C44  4.133809414850E-01 -3.802683153920E-01 -1.837648294939E-01
C45 -3.517808217493E-01  2.730006951708E-01  2.763603311441E-01
C46  3.517808217493E-01 -2.730006951708E-01 -2.763603311441E-01
C47 -3.663030623459E-01  3.687390314828E-01  3.715053494399E-01
C48  3.663030623459E-01 -3.687390314828E-01 -3.715053494399E-01
H49 -4.526039893130E-01 -3.480787455291E-01  4.579087173904E-01
H50  4.526039893130E-01  3.480787455291E-01 -4.579087173904E-01
H51  4.378078601278E-01 -1.536946833342E-01  3.027244669005E-01
H52 -4.378078601278E-01  1.536946833342E-01 -3.027244669005E-01
H53  3.884861284193E-01 -1.414737125649E-01  1.117669719328E-01
H54 -3.884861284193E-01  1.414737125649E-01 -1.117669719328E-01
H55  3.413625247040E-01 -1.275039497498E-01 -7.838771994091E-02
H56 -3.413625247040E-01  1.275039497498E-01  7.838771994091E-02
H57 -2.930201447831E-01  1.138044348918E-01  2.691005169701E-01
H58  2.930201447831E-01 -1.138044348918E-01 -2.691005169701E-01
H59 -3.193972919670E-01  2.859555310113E-01  4.410445398908E-01
H60  3.193972919670E-01 -2.859555310113E-01 -4.410445398908E-01


#===END

data_OPT_STEP_42

_symmetry_space_group_name_H-M 'P 1'
_cell_length_a      8.30306363
_cell_length_b      6.15751977
_cell_length_c     13.36063920
_cell_angle_alpha   98.317416
_cell_angle_beta  107.926169
_cell_angle_gamma   87.950810

loop_
_atom_site_label
_atom_site_fract_x
_atom_site_fract_y
_atom_site_fract_z
C1  1.263215462354E-01  4.722135948846E-02  3.875616831774E-01
C2 -1.263215462354E-01 -4.722135948846E-02 -3.875616831774E-01
C3  1.465940912510E-01  1.623913342090E-01  3.125195965459E-01
C4 -1.465940912510E-01 -1.623913342090E-01 -3.125195965459E-01
C5  8.477093671735E-02  7.734450350389E-02  2.019115399120E-01
C6 -8.477093671735E-02 -7.734450350389E-02 -2.019115399120E-01
C7  1.044320460896E-01  1.905581853075E-01  1.237012356481E-01
C8 -1.044320460896E-01 -1.905581853075E-01 -1.237012356481E-01
C9  4.289103381599E-02  1.054185931395E-01  1.523531882029E-02
C10 -4.289103381599E-02 -1.054185931395E-01 -1.523531882029E-02
C11  6.220190204087E-02  2.187867656530E-01 -6.455970476407E-02
C12 -6.220190204087E-02 -2.187867656530E-01  6.455970476407E-02
C13 -7.643956811617E-04 -1.336547926907E-01  1.714131836186E-01
C14  7.643956811617E-04  1.336547926907E-01 -1.714131836186E-01
C15 -1.934014854632E-02 -2.482418863233E-01  2.531462117550E-01
C16  1.934014854632E-02  2.482418863233E-01 -2.531462117550E-01
C17  4.233715388498E-02 -1.612295822971E-01  3.574155916986E-01
C18 -4.233715388498E-02  1.612295822971E-01 -3.574155916986E-01
H19  1.741001714992E-01  1.135198510989E-01  4.710541374337E-01
H20 -1.741001714992E-01 -1.135198510989E-01 -4.710541374337E-01
H21  2.091222847080E-01  3.215799792972E-01  3.348719207823E-01
H22 -2.091222847080E-01 -3.215799792972E-01 -3.348719207823E-01
H23  1.689732853981E-01  3.484825304164E-01  1.464031755388E-01
H24 -1.689732853981E-01 -3.484825304164E-01 -1.464031755388E-01
H25  1.262272254783E-01  3.769934605461E-01 -4.179801385184E-02
H26 -1.262272254783E-01 -3.769934605461E-01  4.179801385184E-02
H27 -8.364180485174E-02 -4.061323792392E-01  2.303028755511E-01
H28  8.364180485174E-02  4.061323792392E-01 -2.303028755511E-01
H29  2.739724256351E-02 -2.502847276332E-01  4.183510910633E-01
H30 -2.739724256351E-02  2.502847276332E-01 -4.183510910633E-01
C31 -4.433610234830E-01 -4.213342602531E-01  3.811003110496E-01
C32  4.433610234830E-01  4.213342602531E-01 -3.811003110496E-01
C33  4.957398641471E-01 -3.133597276727E-01  2.952426834757E-01
C34 -4.957398641471E-01  3.133597276727E-01 -2.952426834757E-01
C35 -4.921929960477E-01 -4.073461233246E-01  1.933698889056E-01
C36  4.921929960477E-01  4.073461233246E-01 -1.933698889056E-01
C37  4.471781238827E-01 -3.009196414152E-01  1.044928201194E-01
C38 -4.471781238827E-01  3.009196414152E-01 -1.044928201194E-01
C39  4.607514232516E-01 -3.938253686216E-01  4.877805818900E-03
C40 -4.607514232516E-01  3.938253686216E-01 -4.877805818900E-03
C41  4.000974472826E-01 -2.869994285436E-01 -8.557885610468E-02
C42 -4.000974472826E-01  2.869994285436E-01  8.557885610468E-02
C43 -4.139046672503E-01  3.801215385420E-01  1.835904525752E-01
C44  4.139046672503E-01 -3.801215385420E-01 -1.835904525752E-01
C45 -3.520535114019E-01  2.731055365248E-01  2.762024370002E-01
C46  3.520535114019E-01 -2.731055365248E-01 -2.762024370002E-01
C47 -3.664789405090E-01  3.689039392368E-01  3.713960059763E-01
C48  3.664789405090E-01 -3.689039392368E-01 -3.713960059763E-01
H49 -4.527829250425E-01 -3.480127554617E-01  4.578554932069E-01
H50  4.527829250425E-01  3.480127554617E-01 -4.578554932069E-01
H51  4.373297915486E-01 -1.540133412345E-01  3.026678743788E-01
H52 -4.373297915486E-01  1.540133412345E-01 -3.026678743788E-01
H53  3.885489810182E-01 -1.416108496363E-01  1.118714028723E-01
H54 -3.885489810182E-01  1.416108496363E-01 -1.118714028723E-01
H55  3.413373226152E-01 -1.277366241163E-01 -7.827523465694E-02
H56 -3.413373226152E-01  1.277366241163E-01  7.827523465694E-02
H57 -2.931884803758E-01  1.140420269202E-01  2.689266805023E-01
H58  2.931884803758E-01 -1.140420269202E-01 -2.689266805023E-01
H59 -3.188902649770E-01  2.865543037267E-01  4.410627890012E-01
H60  3.188902649770E-01 -2.865543037267E-01 -4.410627890012E-01


#===END

data_OPT_STEP_43

_symmetry_space_group_name_H-M 'P 1'
_cell_length_a      8.29420636
_cell_length_b      6.16187803
_cell_length_c     13.35910994
_cell_angle_alpha   98.296721
_cell_angle_beta  107.852716
_cell_angle_gamma   87.994308

loop_
_atom_site_label
_atom_site_fract_x
_atom_site_fract_y
_atom_site_fract_z
C1  1.264259493073E-01  4.717065538461E-02  3.874830940903E-01
C2 -1.264259493073E-01 -4.717065538461E-02 -3.874830940903E-01
C3  1.466039164908E-01  1.623583216190E-01  3.123957861514E-01
C4 -1.466039164908E-01 -1.623583216190E-01 -3.123957861514E-01
C5  8.475253828534E-02  7.735002286291E-02  2.018384700711E-01
C6 -8.475253828534E-02 -7.735002286291E-02 -2.018384700711E-01
C7  1.045222821963E-01  1.904513039147E-01  1.236083686507E-01
C8 -1.045222821963E-01 -1.904513039147E-01 -1.236083686507E-01
C9  4.284876540175E-02  1.054098460776E-01  1.518458593053E-02
C10 -4.284876540175E-02 -1.054098460776E-01 -1.518458593053E-02
C11  6.198105953932E-02  2.188378200839E-01 -6.466442701333E-02
C12 -6.198105953932E-02 -2.188378200839E-01  6.466442701333E-02
C13 -6.192549353933E-04 -1.336669670880E-01  1.714581381079E-01
C14  6.192549353933E-04  1.336669670880E-01 -1.714581381079E-01
C15 -1.912299576903E-02 -2.482767362252E-01  2.532302241664E-01
C16  1.912299576903E-02  2.482767362252E-01 -2.532302241664E-01
C17  4.242391906752E-02 -1.611983255398E-01  3.574354821006E-01
C18 -4.242391906752E-02  1.611983255398E-01 -3.574354821006E-01
H19  1.741097428741E-01  1.135138541377E-01  4.709189016149E-01
H20 -1.741097428741E-01 -1.135138541377E-01 -4.709189016149E-01
H21  2.091963383760E-01  3.214521212653E-01  3.346912963818E-01
H22 -2.091963383760E-01 -3.214521212653E-01 -3.346912963818E-01
H23  1.691049774786E-01  3.482964194518E-01  1.462332123526E-01
H24 -1.691049774786E-01 -3.482964194518E-01 -1.462332123526E-01
H25  1.259094691971E-01  3.770413535753E-01 -4.199123825371E-02
H26 -1.259094691971E-01 -3.770413535753E-01  4.199123825371E-02
H27 -8.347506588892E-02 -4.060688873241E-01  2.304652364057E-01
H28  8.347506588892E-02  4.060688873241E-01 -2.304652364057E-01
H29  2.735916628720E-02 -2.501314733287E-01  4.183955227294E-01
H30 -2.735916628720E-02  2.501314733287E-01 -4.183955227294E-01
C31 -4.433735526423E-01 -4.212407855604E-01  3.810562058611E-01
C32  4.433735526423E-01  4.212407855604E-01 -3.810562058611E-01
C33  4.955204896675E-01 -3.135308640351E-01  2.951684279557E-01
C34 -4.955204896675E-01  3.135308640351E-01 -2.951684279557E-01
C35 -4.922101440007E-01 -4.073685759374E-01  1.933509671705E-01
C36  4.922101440007E-01  4.073685759374E-01 -1.933509671705E-01
C37  4.472248386161E-01 -3.010333123832E-01  1.045115965167E-01
C38 -4.472248386161E-01  3.010333123832E-01 -1.045115965167E-01
C39  4.607917042213E-01 -3.938925001537E-01  4.896145449083E-03
C40 -4.607917042213E-01  3.938925001537E-01 -4.896145449083E-03
C41  4.001617317022E-01 -2.871759332844E-01 -8.552966804190E-02
C42 -4.001617317022E-01  2.871759332844E-01  8.552966804190E-02
C43 -4.139503068168E-01  3.802598196567E-01  1.835450883040E-01
C44  4.139503068168E-01 -3.802598196567E-01 -1.835450883040E-01
C45 -3.519257552901E-01  2.734715563374E-01  2.761675302636E-01
C46  3.519257552901E-01 -2.734715563374E-01 -2.761675302636E-01
C47 -3.662422694172E-01  3.692936909091E-01  3.713927386937E-01
C48  3.662422694172E-01 -3.692936909091E-01 -3.713927386937E-01
H49 -4.527590952484E-01 -3.479092595443E-01  4.578171306602E-01
H50  4.527590952484E-01  3.479092595443E-01 -4.578171306602E-01
H51  4.370170604130E-01 -1.543641313983E-01  3.025909314624E-01
H52 -4.370170604130E-01  1.543641313983E-01 -3.025909314624E-01
H53  3.885447079668E-01 -1.418812777839E-01  1.118965804558E-01
H54 -3.885447079668E-01  1.418812777839E-01 -1.118965804558E-01
H55  3.414591438166E-01 -1.280109896799E-01 -7.818847678033E-02
H56 -3.414591438166E-01  1.280109896799E-01  7.818847678033E-02
H57 -2.929651805386E-01  1.145828969012E-01  2.688987091706E-01
H58  2.929651805386E-01 -1.145828969012E-01 -2.688987091706E-01
H59 -3.185139986087E-01  2.871262478930E-01  4.410687103066E-01
H60  3.185139986087E-01 -2.871262478930E-01 -4.410687103066E-01


#===END

data_OPT_STEP_44

_symmetry_space_group_name_H-M 'P 1'
_cell_length_a      8.28714544
_cell_length_b      6.16596658
_cell_length_c     13.35923839
_cell_angle_alpha   98.291845
_cell_angle_beta  107.774819
_cell_angle_gamma   88.025171

loop_
_atom_site_label
_atom_site_fract_x
_atom_site_fract_y
_atom_site_fract_z
C1  1.261220560951E-01  4.759119872720E-02  3.873203881678E-01
C2 -1.261220560951E-01 -4.759119872720E-02 -3.873203881678E-01
C3  1.464970295875E-01  1.625646814862E-01  3.122297100778E-01
C4 -1.464970295875E-01 -1.625646814862E-01 -3.122297100778E-01
C5  8.484862507839E-02  7.741341020064E-02  2.017576980571E-01
C6 -8.484862507839E-02 -7.741341020064E-02 -2.017576980571E-01
C7  1.045532294951E-01  1.904276396929E-01  1.234865867314E-01
C8 -1.045532294951E-01 -1.904276396929E-01 -1.234865867314E-01
C9  4.281684044525E-02  1.053828044681E-01  1.512831073968E-02
C10 -4.281684044525E-02 -1.053828044681E-01 -1.512831073968E-02
C11  6.183580451790E-02  2.187515209490E-01 -6.476692658595E-02
C12 -6.183580451790E-02 -2.187515209490E-01  6.476692658595E-02
C13 -4.552037602858E-04 -1.335574954309E-01  1.714946644906E-01
C14  4.552037602858E-04  1.335574954309E-01 -1.714946644906E-01
C15 -1.909993290464E-02 -2.479712568042E-01  2.532722670813E-01
C16  1.909993290464E-02  2.479712568042E-01 -2.532722670813E-01
C17  4.217986869216E-02 -1.607208062013E-01  3.573830421791E-01
C18 -4.217986869216E-02  1.607208062013E-01 -3.573830421791E-01
H19  1.738323360886E-01  1.139251927385E-01  4.707041842138E-01
H20 -1.738323360886E-01 -1.139251927385E-01 -4.707041842138E-01
H21  2.092585595226E-01  3.214997485219E-01  3.344874204996E-01
H22 -2.092585595226E-01 -3.214997485219E-01 -3.344874204996E-01
H23  1.689834553216E-01  3.483007476795E-01  1.460073174327E-01
H24 -1.689834553216E-01 -3.483007476795E-01 -1.460073174327E-01
H25  1.258001704940E-01  3.768785735237E-01 -4.217521619017E-02
H26 -1.258001704940E-01 -3.768785735237E-01  4.217521619017E-02
H27 -8.335264673256E-02 -4.057481579962E-01  2.306119045538E-01
H28  8.335264673256E-02  4.057481579962E-01 -2.306119045538E-01
H29  2.706289789547E-02 -2.495458038014E-01  4.183680302080E-01
H30 -2.706289789547E-02  2.495458038014E-01 -4.183680302080E-01
C31 -4.432781103617E-01 -4.211295536642E-01  3.810136402021E-01
C32  4.432781103617E-01  4.211295536642E-01 -3.810136402021E-01
C33  4.954151707004E-01 -3.136487498999E-01  2.951188782540E-01
C34 -4.954151707004E-01  3.136487498999E-01 -2.951188782540E-01
C35 -4.923516941563E-01 -4.074720228187E-01  1.932975808551E-01
C36  4.923516941563E-01  4.074720228187E-01 -1.932975808551E-01
C37  4.471088306056E-01 -3.012102632296E-01  1.045043075473E-01
C38 -4.471088306056E-01  3.012102632296E-01 -1.045043075473E-01
C39  4.607462789048E-01 -3.939745654906E-01  4.905755405808E-03
C40 -4.607462789048E-01  3.939745654906E-01 -4.905755405808E-03
C41  4.001572544387E-01 -2.873384249845E-01 -8.547159305690E-02
C42 -4.001572544387E-01  2.873384249845E-01  8.547159305690E-02
C43 -4.140677401414E-01  3.803078211204E-01  1.834574053744E-01
C44  4.140677401414E-01 -3.803078211204E-01 -1.834574053744E-01
C45 -3.518923071890E-01  2.737192306673E-01  2.760641513151E-01
C46  3.518923071890E-01 -2.737192306673E-01 -2.760641513151E-01
C47 -3.659586222759E-01  3.696358865796E-01  3.713541772712E-01
C48  3.659586222759E-01 -3.696358865796E-01 -3.713541772712E-01
H49 -4.526138693499E-01 -3.477488962847E-01  4.577785853336E-01
H50  4.526138693499E-01  3.477488962847E-01 -4.577785853336E-01
H51  4.370057589410E-01 -1.545445166409E-01  3.025985289682E-01
H52 -4.370057589410E-01  1.545445166409E-01 -3.025985289682E-01
H53  3.885099942517E-01 -1.421217615058E-01  1.119465096477E-01
H54 -3.885099942517E-01  1.421217615058E-01 -1.119465096477E-01
H55  3.413280661041E-01 -1.283387693607E-01 -7.811845331940E-02
H56 -3.413280661041E-01  1.283387693607E-01  7.811845331940E-02
H57 -2.927577860480E-01  1.150231501538E-01  2.688043705534E-01
H58  2.927577860480E-01 -1.150231501538E-01 -2.688043705534E-01
H59 -3.181757807724E-01  2.875920419523E-01  4.410011411732E-01
H60  3.181757807724E-01 -2.875920419523E-01 -4.410011411732E-01


#===END

data_OPT_STEP_45

_symmetry_space_group_name_H-M 'P 1'
_cell_length_a      8.28093842
_cell_length_b      6.16715260
_cell_length_c     13.35661620
_cell_angle_alpha   98.244070
_cell_angle_beta  107.680995
_cell_angle_gamma   88.065537

loop_
_atom_site_label
_atom_site_fract_x
_atom_site_fract_y
_atom_site_fract_z
C1  1.262869125626E-01  4.747081635741E-02  3.872496701109E-01
C2 -1.262869125626E-01 -4.747081635741E-02 -3.872496701109E-01
C3  1.466147843838E-01  1.624659884613E-01  3.120798998799E-01
C4 -1.466147843838E-01 -1.624659884613E-01 -3.120798998799E-01
C5  8.491719040070E-02  7.736227303569E-02  2.016798673993E-01
C6 -8.491719040070E-02 -7.736227303569E-02 -2.016798673993E-01
C7  1.045785209272E-01  1.903836252500E-01  1.233289061048E-01
C8 -1.045785209272E-01 -1.903836252500E-01 -1.233289061048E-01
C9  4.279192250379E-02  1.053818800231E-01  1.504516580246E-02
C10 -4.279192250379E-02 -1.053818800231E-01 -1.504516580246E-02
C11  6.172741377461E-02  2.187828912626E-01 -6.493335828234E-02
C12 -6.172741377461E-02 -2.187828912626E-01  6.493335828234E-02
C13 -3.382278147170E-04 -1.336044413471E-01  1.715840680521E-01
C14  3.382278147170E-04  1.336044413471E-01 -1.715840680521E-01
C15 -1.892702254911E-02 -2.480438857379E-01  2.534394572477E-01
C16  1.892702254911E-02  2.480438857379E-01 -2.534394572477E-01
C17  4.234848635391E-02 -1.608111411219E-01  3.574715705600E-01
C18 -4.234848635391E-02  1.608111411219E-01 -3.574715705600E-01
H19  1.739971314924E-01  1.137871856705E-01  4.705748784910E-01
H20 -1.739971314924E-01 -1.137871856705E-01 -4.705748784910E-01
H21  2.093725365648E-01  3.213791551623E-01  3.342232448435E-01
H22 -2.093725365648E-01 -3.213791551623E-01 -3.342232448435E-01
H23  1.690014792887E-01  3.482377503307E-01  1.457227257167E-01
H24 -1.690014792887E-01 -3.482377503307E-01 -1.457227257167E-01
H25  1.256575432910E-01  3.769065933962E-01 -4.246999140907E-02
H26 -1.256575432910E-01 -3.769065933962E-01  4.246999140907E-02
H27 -8.319255299866E-02 -4.057820370629E-01  2.309048842606E-01
H28  8.319255299866E-02  4.057820370629E-01 -2.309048842606E-01
H29  2.721769093408E-02 -2.496164850573E-01  4.185160371346E-01
H30 -2.721769093408E-02  2.496164850573E-01 -4.185160371346E-01
C31 -4.431104574907E-01 -4.209711239213E-01  3.810353737372E-01
C32  4.431104574907E-01  4.209711239213E-01 -3.810353737372E-01
C33  4.955111263881E-01 -3.135926356419E-01  2.951251097212E-01
C34 -4.955111263881E-01  3.135926356419E-01 -2.951251097212E-01
C35 -4.922754818096E-01 -4.074171976987E-01  1.933070872257E-01
C36  4.922754818096E-01  4.074171976987E-01 -1.933070872257E-01
C37  4.471416956441E-01 -3.012396161085E-01  1.045049889278E-01
C38 -4.471416956441E-01  3.012396161085E-01 -1.045049889278E-01
C39  4.607433139745E-01 -3.940135896903E-01  4.901681209391E-03
C40 -4.607433139745E-01  3.940135896903E-01 -4.901681209391E-03
C41  4.001138328204E-01 -2.874609865058E-01 -8.548349162721E-02
C42 -4.001138328204E-01  2.874609865058E-01  8.548349162721E-02
C43 -4.139888712237E-01  3.804395262903E-01  1.834732636999E-01
C44  4.139888712237E-01 -3.804395262903E-01 -1.834732636999E-01
C45 -3.517398118008E-01  2.739578780002E-01  2.760916513891E-01
C46  3.517398118008E-01 -2.739578780002E-01 -2.760916513891E-01
C47 -3.657536548744E-01  3.698926275875E-01  3.713903418556E-01
C48  3.657536548744E-01 -3.698926275875E-01 -3.713903418556E-01
H49 -4.524647611134E-01 -3.476021648103E-01  4.577891642114E-01
H50  4.524647611134E-01  3.476021648103E-01 -4.577891642114E-01
H51  4.370507176595E-01 -1.545747678550E-01  3.025918669309E-01
H52 -4.370507176595E-01  1.545747678550E-01 -3.025918669309E-01
H53  3.885483718267E-01 -1.422066338677E-01  1.119453730724E-01
H54 -3.885483718267E-01  1.422066338677E-01 -1.119453730724E-01
H55  3.412703111542E-01 -1.285260193535E-01 -7.813454744909E-02
H56 -3.412703111542E-01  1.285260193535E-01  7.813454744909E-02
H57 -2.925740428852E-01  1.153373977122E-01  2.688449861334E-01
H58  2.925740428852E-01 -1.153373977122E-01 -2.688449861334E-01
H59 -3.178820538525E-01  2.879481908658E-01  4.410543499605E-01
H60  3.178820538525E-01 -2.879481908658E-01 -4.410543499605E-01


#===END

data_OPT_STEP_46

_symmetry_space_group_name_H-M 'P 1'
_cell_length_a      8.26371731
_cell_length_b      6.17640426
_cell_length_c     13.35741063
_cell_angle_alpha   98.188912
_cell_angle_beta  107.551361
_cell_angle_gamma   88.109772

loop_
_atom_site_label
_atom_site_fract_x
_atom_site_fract_y
_atom_site_fract_z
C1  1.266471709430E-01  4.761340898163E-02  3.870015508675E-01
C2 -1.266471709430E-01 -4.761340898163E-02 -3.870015508675E-01
C3  1.467055699780E-01  1.625631098484E-01  3.117189884899E-01
C4 -1.467055699780E-01 -1.625631098484E-01 -3.117189884899E-01
C5  8.490723213525E-02  7.752474794091E-02  2.014690736083E-01
C6 -8.490723213525E-02 -7.752474794091E-02 -2.014690736083E-01
C7  1.043699957611E-01  1.903984699404E-01  1.230107879066E-01
C8 -1.043699957611E-01 -1.903984699404E-01 -1.230107879066E-01
C9  4.262399338018E-02  1.053572937147E-01  1.489836963362E-02
C10 -4.262399338018E-02 -1.053572937147E-01 -1.489836963362E-02
C11  6.139886416213E-02  2.185932377022E-01 -6.518266575569E-02
C12 -6.139886416213E-02 -2.185932377022E-01  6.518266575569E-02
C13 -1.293845667927E-04 -1.333236323748E-01  1.716628923108E-01
C14  1.293845667927E-04  1.333236323748E-01 -1.716628923108E-01
C15 -1.858983929615E-02 -2.476043951438E-01  2.536051157115E-01
C16  1.858983929615E-02  2.476043951438E-01 -2.536051157115E-01
C17  4.273274709280E-02 -1.604261554953E-01  3.574847067064E-01
C18 -4.273274709280E-02  1.604261554953E-01 -3.574847067064E-01
H19  1.743075728081E-01  1.139454418744E-01  4.701948840755E-01
H20 -1.743075728081E-01 -1.139454418744E-01 -4.701948840755E-01
H21  2.094753141547E-01  3.212760713790E-01  3.337081004346E-01
H22 -2.094753141547E-01 -3.212760713790E-01 -3.337081004346E-01
H23  1.685645282456E-01  3.482101510195E-01  1.451834300935E-01
H24 -1.685645282456E-01 -3.482101510195E-01 -1.451834300935E-01
H25  1.251392974218E-01  3.766515113011E-01 -4.294602238623E-02
H26 -1.251392974218E-01 -3.766515113011E-01  4.294602238623E-02
H27 -8.273567267767E-02 -4.052131667266E-01  2.312894646555E-01
H28  8.273567267767E-02  4.052131667266E-01 -2.312894646555E-01
H29  2.752333576068E-02 -2.490149656284E-01  4.185957496927E-01
H30 -2.752333576068E-02  2.490149656284E-01 -4.185957496927E-01
C31 -4.429058562802E-01 -4.206622213597E-01  3.808973159317E-01
C32  4.429058562802E-01  4.206622213597E-01 -3.808973159317E-01
C33  4.956849992929E-01 -3.135253490174E-01  2.950129599126E-01
C34 -4.956849992929E-01  3.135253490174E-01 -2.950129599126E-01
C35 -4.920958482196E-01 -4.073049797733E-01  1.932612113808E-01
C36  4.920958482196E-01  4.073049797733E-01 -1.932612113808E-01
C37  4.473791903793E-01 -3.012941891510E-01  1.045097650229E-01
C38 -4.473791903793E-01  3.012941891510E-01 -1.045097650229E-01
C39  4.608257103294E-01 -3.940914466410E-01  4.911265577869E-03
C40 -4.608257103294E-01  3.940914466410E-01 -4.911265577869E-03
C41  4.001166098944E-01 -2.877888091392E-01 -8.545534756823E-02
C42 -4.001166098944E-01  2.877888091392E-01  8.545534756823E-02
C43 -4.138555471657E-01  3.807874808584E-01  1.834347183424E-01
C44  4.138555471657E-01 -3.807874808584E-01 -1.834347183424E-01
C45 -3.514027456179E-01  2.746489335469E-01  2.760423149524E-01
C46  3.514027456179E-01 -2.746489335469E-01 -2.760423149524E-01
C47 -3.654613460841E-01  3.705076057671E-01  3.712850636992E-01
C48  3.654613460841E-01 -3.705076057671E-01 -3.712850636992E-01
H49 -4.521886758212E-01 -3.472111251922E-01  4.576101851372E-01
H50  4.521886758212E-01  3.472111251922E-01 -4.576101851372E-01
H51  4.371322096192E-01 -1.547599693556E-01  3.024610626120E-01
H52 -4.371322096192E-01  1.547599693556E-01 -3.024610626120E-01
H53  3.887146723409E-01 -1.424939592526E-01  1.119319146741E-01
H54 -3.887146723409E-01  1.424939592526E-01 -1.119319146741E-01
H55  3.413780443108E-01 -1.289994253452E-01 -7.807705830106E-02
H56 -3.413780443108E-01  1.289994253452E-01  7.807705830106E-02
H57 -2.923900633919E-01  1.161614735733E-01  2.687698311578E-01
H58  2.923900633919E-01 -1.161614735733E-01 -2.687698311578E-01
H59 -3.174416019541E-01  2.888128868783E-01  4.409341189143E-01
H60  3.174416019541E-01 -2.888128868783E-01 -4.409341189143E-01


#===END

data_OPT_STEP_47

_symmetry_space_group_name_H-M 'P 1'
_cell_length_a      8.24633238
_cell_length_b      6.18509969
_cell_length_c     13.35990625
_cell_angle_alpha   98.142023
_cell_angle_beta  107.435374
_cell_angle_gamma   88.121249

loop_
_atom_site_label
_atom_site_fract_x
_atom_site_fract_y
_atom_site_fract_z
C1  1.270426201687E-01  4.794040211972E-02  3.867720152065E-01
C2 -1.270426201687E-01 -4.794040211972E-02 -3.867720152065E-01
C3  1.469308179851E-01  1.626968230510E-01  3.113712922077E-01
C4 -1.469308179851E-01 -1.626968230510E-01 -3.113712922077E-01
C5  8.500863160820E-02  7.768267195140E-02  2.012725944234E-01
C6 -8.500863160820E-02 -7.768267195140E-02 -2.012725944234E-01
C7  1.044113175975E-01  1.902729042138E-01  1.227262811479E-01
C8 -1.044113175975E-01 -1.902729042138E-01 -1.227262811479E-01
C9  4.259015770882E-02  1.052481198631E-01  1.476668376440E-02
C10 -4.259015770882E-02 -1.052481198631E-01 -1.476668376440E-02
C11  6.103156472110E-02  2.183860091911E-01 -6.543435759388E-02
C12 -6.103156472110E-02 -2.183860091911E-01  6.543435759388E-02
C13  2.763289342721E-04 -1.330889884498E-01  1.717627453079E-01
C14 -2.763289342721E-04  1.330889884498E-01 -1.717627453079E-01
C15 -1.780179290751E-02 -2.472929049483E-01  2.538384885614E-01
C16  1.780179290751E-02  2.472929049483E-01 -2.538384885614E-01
C17  4.336132190619E-02 -1.599745876059E-01  3.575495668299E-01
C18 -4.336132190619E-02  1.599745876059E-01 -3.575495668299E-01
H19  1.746904772390E-01  1.143112266996E-01  4.698362558283E-01
H20 -1.746904772390E-01 -1.143112266996E-01 -4.698362558283E-01
H21  2.095661031158E-01  3.212732197530E-01  3.331692920720E-01
H22 -2.095661031158E-01 -3.212732197530E-01 -3.331692920720E-01
H23  1.683305826594E-01  3.480593186582E-01  1.447020432634E-01
H24 -1.683305826594E-01 -3.480593186582E-01 -1.447020432634E-01
H25  1.245947631846E-01  3.763575877661E-01 -4.341523658045E-02
H26 -1.245947631846E-01 -3.763575877661E-01  4.341523658045E-02
H27 -8.173323295038E-02 -4.048231373081E-01  2.317512955083E-01
H28  8.173323295038E-02  4.048231373081E-01 -2.317512955083E-01
H29  2.830431613092E-02 -2.484178502275E-01  4.187531767938E-01
H30 -2.830431613092E-02  2.484178502275E-01 -4.187531767938E-01
C31 -4.426554329286E-01 -4.202885972017E-01  3.807393674137E-01
C32  4.426554329286E-01  4.202885972017E-01 -3.807393674137E-01
C33  4.960573102013E-01 -3.132483747313E-01  2.949269971240E-01
C34 -4.960573102013E-01  3.132483747313E-01 -2.949269971240E-01
C35 -4.917876272450E-01 -4.070624073699E-01  1.932313952016E-01
C36  4.917876272450E-01  4.070624073699E-01 -1.932313952016E-01
C37  4.475717657464E-01 -3.012847621630E-01  1.044927123632E-01
C38 -4.475717657464E-01  3.012847621630E-01 -1.044927123632E-01
C39  4.609266144143E-01 -3.941278056176E-01  4.925680678871E-03
C40 -4.609266144143E-01  3.941278056176E-01 -4.925680678871E-03
C41  4.002672774985E-01 -2.879702193410E-01 -8.538827241087E-02
C42 -4.002672774985E-01  2.879702193410E-01  8.538827241087E-02
C43 -4.137415362530E-01  3.811116036026E-01  1.833807175338E-01
C44  4.137415362530E-01 -3.811116036026E-01 -1.833807175338E-01
C45 -3.516425744348E-01  2.749698853509E-01  2.758477226773E-01
C46  3.516425744348E-01 -2.749698853509E-01 -2.758477226773E-01
C47 -3.655804846537E-01  3.708894021847E-01  3.710622388156E-01
C48  3.655804846537E-01 -3.708894021847E-01 -3.710622388156E-01
H49 -4.518563929275E-01 -3.467388177057E-01  4.574044972556E-01
H50  4.518563929275E-01  3.467388177057E-01 -4.574044972556E-01
H51  4.376288249334E-01 -1.545593434900E-01  3.024047186523E-01
H52 -4.376288249334E-01  1.545593434900E-01 -3.024047186523E-01
H53  3.891483524357E-01 -1.424995465232E-01  1.119647985330E-01
H54 -3.891483524357E-01  1.424995465232E-01 -1.119647985330E-01
H55  3.417011636441E-01 -1.292349099069E-01 -7.797030552413E-02
H56 -3.417011636441E-01  1.292349099069E-01  7.797030552413E-02
H57 -2.926092535577E-01  1.166302031617E-01  2.685940330507E-01
H58  2.926092535577E-01 -1.166302031617E-01 -2.685940330507E-01
H59 -3.174496671508E-01  2.893951764963E-01  4.406894348614E-01
H60  3.174496671508E-01 -2.893951764963E-01 -4.406894348614E-01


#===END

data_OPT_STEP_48

_symmetry_space_group_name_H-M 'P 1'
_cell_length_a      8.23017803
_cell_length_b      6.19267302
_cell_length_c     13.36150015
_cell_angle_alpha   98.092810
_cell_angle_beta  107.284214
_cell_angle_gamma   88.151469

loop_
_atom_site_label
_atom_site_fract_x
_atom_site_fract_y
_atom_site_fract_z
C1  1.273446022719E-01  4.835627056785E-02  3.865753509353E-01
C2 -1.273446022719E-01 -4.835627056785E-02 -3.865753509353E-01
C3  1.471329330093E-01  1.628770384138E-01  3.110329866669E-01
C4 -1.471329330093E-01 -1.628770384138E-01 -3.110329866669E-01
C5  8.508467937048E-02  7.785065000905E-02  2.010909041555E-01
C6 -8.508467937048E-02 -7.785065000905E-02 -2.010909041555E-01
C7  1.041253415797E-01  1.903925629878E-01  1.223948926670E-01
C8 -1.041253415797E-01 -1.903925629878E-01 -1.223948926670E-01
C9  4.241016587397E-02  1.052591565655E-01  1.460518228904E-02
C10 -4.241016587397E-02 -1.052591565655E-01 -1.460518228904E-02
C11  6.065618044848E-02  2.182564457905E-01 -6.572695996316E-02
C12 -6.065618044848E-02 -2.182564457905E-01  6.572695996316E-02
C13  5.301962876627E-04 -1.328260150268E-01  1.718872950677E-01
C14 -5.301962876627E-04  1.328260150268E-01 -1.718872950677E-01
C15 -1.733210148535E-02 -2.468573698026E-01  2.541092286137E-01
C16  1.733210148535E-02  2.468573698026E-01 -2.541092286137E-01
C17  4.388328304151E-02 -1.594801481531E-01  3.576707565622E-01
C18 -4.388328304151E-02  1.594801481531E-01 -3.576707565622E-01
H19  1.750991649732E-01  1.147136723614E-01  4.695274377724E-01
H20 -1.750991649732E-01 -1.147136723614E-01 -4.695274377724E-01
H21  2.094807412678E-01  3.214406803179E-01  3.325677886301E-01
H22 -2.094807412678E-01 -3.214406803179E-01 -3.325677886301E-01
H23  1.677887800565E-01  3.481779963147E-01  1.441641703753E-01
H24 -1.677887800565E-01 -3.481779963147E-01 -1.441641703753E-01
H25  1.241579123914E-01  3.761037961353E-01 -4.393014545788E-02
H26 -1.241579123914E-01 -3.761037961353E-01  4.393014545788E-02
H27 -8.105007383406E-02 -4.043624883499E-01  2.322604182496E-01
H28  8.105007383406E-02  4.043624883499E-01 -2.322604182496E-01
H29  2.915842037947E-02 -2.478927676864E-01  4.189951423024E-01
H30 -2.915842037947E-02  2.478927676864E-01 -4.189951423024E-01
C31 -4.424017454991E-01 -4.199888572103E-01  3.806279569428E-01
C32  4.424017454991E-01  4.199888572103E-01 -3.806279569428E-01
C33  4.962585914877E-01 -3.131230737120E-01  2.948539672570E-01
C34 -4.962585914877E-01  3.131230737120E-01 -2.948539672570E-01
C35 -4.916973983692E-01 -4.069662286848E-01  1.931688836200E-01
C36  4.916973983692E-01  4.069662286848E-01 -1.931688836200E-01
C37  4.477247121447E-01 -3.013345181923E-01  1.044895106087E-01
C38 -4.477247121447E-01  3.013345181923E-01 -1.044895106087E-01
C39  4.610115487957E-01 -3.941964593020E-01  4.952171898593E-03
C40 -4.610115487957E-01  3.941964593020E-01 -4.952171898593E-03
C41  4.003541420011E-01 -2.882094831916E-01 -8.531220660232E-02
C42 -4.003541420011E-01  2.882094831916E-01  8.531220660232E-02
C43 -4.136978600697E-01  3.813881772715E-01  1.832995619798E-01
C44  4.136978600697E-01 -3.813881772715E-01 -1.832995619798E-01
C45 -3.515090458549E-01  2.754540939714E-01  2.757395346042E-01
C46  3.515090458549E-01 -2.754540939714E-01 -2.757395346042E-01
C47 -3.654310929662E-01  3.713452770451E-01  3.709101036408E-01
C48  3.654310929662E-01 -3.713452770451E-01 -3.709101036408E-01
H49 -4.514277002526E-01 -3.463586855354E-01  4.572941508712E-01
H50  4.514277002526E-01  3.463586855354E-01 -4.572941508712E-01
H51  4.379274919652E-01 -1.545307908616E-01  3.023681961735E-01
H52 -4.379274919652E-01  1.545307908616E-01 -3.023681961735E-01
H53  3.893116489048E-01 -1.426919755264E-01  1.119713084826E-01
H54 -3.893116489048E-01  1.426919755264E-01 -1.119713084826E-01
H55  3.418039883040E-01 -1.296206131660E-01 -7.788053012849E-02
H56 -3.418039883040E-01  1.296206131660E-01  7.788053012849E-02
H57 -2.927140827916E-01  1.171486531337E-01  2.684270583938E-01
H58  2.927140827916E-01 -1.171486531337E-01 -2.684270583938E-01
H59 -3.174871286759E-01  2.898794631985E-01  4.404456514918E-01
H60  3.174871286759E-01 -2.898794631985E-01 -4.404456514918E-01


#===END

data_OPT_STEP_49

_symmetry_space_group_name_H-M 'P 1'
_cell_length_a      8.21412023
_cell_length_b      6.19903594
_cell_length_c     13.36527513
_cell_angle_alpha   98.031646
_cell_angle_beta  107.158346
_cell_angle_gamma   88.178610

loop_
_atom_site_label
_atom_site_fract_x
_atom_site_fract_y
_atom_site_fract_z
C1  1.273249978807E-01  4.908847857082E-02  3.863533311064E-01
C2 -1.273249978807E-01 -4.908847857082E-02 -3.863533311064E-01
C3  1.468821595870E-01  1.634535618396E-01  3.106578060332E-01
C4 -1.468821595870E-01 -1.634535618396E-01 -3.106578060332E-01
C5  8.542410359537E-02  7.789599772354E-02  2.009382467969E-01
C6 -8.542410359537E-02 -7.789599772354E-02 -2.009382467969E-01
C7  1.039694360106E-01  1.904873041180E-01  1.220818007749E-01
C8 -1.039694360106E-01 -1.904873041180E-01 -1.220818007749E-01
C9  4.230139121676E-02  1.052466941374E-01  1.445019717025E-02
C10 -4.230139121676E-02 -1.052466941374E-01 -1.445019717025E-02
C11  6.033129551084E-02  2.181223518859E-01 -6.601150673763E-02
C12 -6.033129551084E-02 -2.181223518859E-01  6.601150673763E-02
C13  1.148053066612E-03 -1.327888402391E-01  1.720415508997E-01
C14 -1.148053066612E-03  1.327888402391E-01 -1.720415508997E-01
C15 -1.666399334828E-02 -2.465061758306E-01  2.543913321618E-01
C16  1.666399334828E-02  2.465061758306E-01 -2.543913321618E-01
C17  4.448717054162E-02 -1.589654039730E-01  3.577888882144E-01
C18 -4.448717054162E-02  1.589654039730E-01 -3.577888882144E-01
H19  1.745913181466E-01  1.158186343899E-01  4.691425274998E-01
H20 -1.745913181466E-01 -1.158186343899E-01 -4.691425274998E-01
H21  2.088954025688E-01  3.220827339775E-01  3.318738749389E-01
H22 -2.088954025688E-01 -3.220827339775E-01 -3.318738749389E-01
H23  1.671988529485E-01  3.484079352038E-01  1.436480119175E-01
H24 -1.671988529485E-01 -3.484079352038E-01 -1.436480119175E-01
H25  1.234953261102E-01  3.760326497421E-01 -4.444966485452E-02
H26 -1.234953261102E-01 -3.760326497421E-01  4.444966485452E-02
H27 -7.995459184124E-02 -4.041625322388E-01  2.327790872649E-01
H28  7.995459184124E-02  4.041625322388E-01 -2.327790872649E-01
H29  2.965330962799E-02 -2.470953031956E-01  4.191858129376E-01
H30 -2.965330962799E-02  2.470953031956E-01 -4.191858129376E-01
C31 -4.421207480629E-01 -4.197313336852E-01  3.804798555484E-01
C32  4.421207480629E-01  4.197313336852E-01 -3.804798555484E-01
C33  4.968753379866E-01 -3.127815769782E-01  2.948180417867E-01
C34 -4.968753379866E-01  3.127815769782E-01 -2.948180417867E-01
C35 -4.913889884681E-01 -4.067656549140E-01  1.931196619827E-01
C36  4.913889884681E-01  4.067656549140E-01 -1.931196619827E-01
C37  4.480245799052E-01 -3.012701623621E-01  1.044642928907E-01
C38 -4.480245799052E-01  3.012701623621E-01 -1.044642928907E-01
C39  4.610440071603E-01 -3.942642378413E-01  4.939890160098E-03
C40 -4.610440071603E-01  3.942642378413E-01 -4.939890160098E-03
C41  4.002312525502E-01 -2.884940806594E-01 -8.532836243679E-02
C42 -4.002312525502E-01  2.884940806594E-01  8.532836243679E-02
C43 -4.135132061161E-01  3.816745859381E-01  1.832578150375E-01
C44  4.135132061161E-01 -3.816745859381E-01 -1.832578150375E-01
C45 -3.514210582282E-01  2.757928955706E-01  2.756576594825E-01
C46  3.514210582282E-01 -2.757928955706E-01 -2.756576594825E-01
C47 -3.654002091487E-01  3.716199385326E-01  3.707319476462E-01
C48  3.654002091487E-01 -3.716199385326E-01 -3.707319476462E-01
H49 -4.507974292906E-01 -3.459552232786E-01  4.571652985232E-01
H50  4.507974292906E-01  3.459552232786E-01 -4.571652985232E-01
H51  4.388267314252E-01 -1.541450327348E-01  3.023727440984E-01
H52 -4.388267314252E-01  1.541450327348E-01 -3.023727440984E-01
H53  3.895986918672E-01 -1.427358287354E-01  1.119068858180E-01
H54 -3.895986918672E-01  1.427358287354E-01 -1.119068858180E-01
H55  3.420050402611E-01 -1.298581866323E-01 -7.786243797828E-02
H56 -3.420050402611E-01  1.298581866323E-01  7.786243797828E-02
H57 -2.927042927775E-01  1.175511254805E-01  2.683555901823E-01
H58  2.927042927775E-01 -1.175511254805E-01 -2.683555901823E-01
H59 -3.175391104802E-01  2.901789706063E-01  4.402201095624E-01
H60  3.175391104802E-01 -2.901789706063E-01 -4.402201095624E-01


#===END

data_OPT_STEP_50

_symmetry_space_group_name_H-M 'P 1'
_cell_length_a      8.20976637
_cell_length_b      6.20032193
_cell_length_c     13.36429890
_cell_angle_alpha   98.012649
_cell_angle_beta  107.124990
_cell_angle_gamma   88.179584

loop_
_atom_site_label
_atom_site_fract_x
_atom_site_fract_y
_atom_site_fract_z
C1  1.272573122539E-01  4.921335055847E-02  3.862810514250E-01
C2 -1.272573122539E-01 -4.921335055847E-02 -3.862810514250E-01
C3  1.468496432594E-01  1.635158568440E-01  3.105699689204E-01
C4 -1.468496432594E-01 -1.635158568440E-01 -3.105699689204E-01
C5  8.525751464599E-02  7.803601001937E-02  2.008710870440E-01
C6 -8.525751464599E-02 -7.803601001937E-02 -2.008710870440E-01
C7  1.037843752361E-01  1.905929691696E-01  1.219842144616E-01
C8 -1.037843752361E-01 -1.905929691696E-01 -1.219842144616E-01
C9  4.221480915829E-02  1.052717255953E-01  1.440454263574E-02
C10 -4.221480915829E-02 -1.052717255953E-01 -1.440454263574E-02
C11  6.024328399709E-02  2.180941161622E-01 -6.607930595929E-02
C12 -6.024328399709E-02 -2.180941161622E-01  6.607930595929E-02
C13  1.059896417462E-03 -1.326432517504E-01  1.720455619739E-01
C14 -1.059896417462E-03  1.326432517504E-01 -1.720455619739E-01
C15 -1.664525650635E-02 -2.463699668597E-01  2.544306362335E-01
C16  1.664525650635E-02  2.463699668597E-01 -2.544306362335E-01
C17  4.443213107845E-02 -1.587964917091E-01  3.577725561724E-01
C18 -4.443213107845E-02  1.587964917091E-01 -3.577725561724E-01
H19  1.746621537380E-01  1.158356673499E-01  4.690637710743E-01
H20 -1.746621537380E-01 -1.158356673499E-01 -4.690637710743E-01
H21  2.088458669592E-01  3.221390613815E-01  3.317218757060E-01
H22 -2.088458669592E-01 -3.221390613815E-01 -3.317218757060E-01
H23  1.669692006105E-01  3.485044699977E-01  1.434837819831E-01
H24 -1.669692006105E-01 -3.485044699977E-01 -1.434837819831E-01
H25  1.233865505092E-01  3.759874520770E-01 -4.457134498343E-02
H26 -1.233865505092E-01 -3.759874520770E-01  4.457134498343E-02
H27 -7.987151941774E-02 -4.040393950959E-01  2.328625925282E-01
H28  7.987151941774E-02  4.040393950959E-01 -2.328625925282E-01
H29  2.972554016637E-02 -2.469837352764E-01  4.191960609938E-01
H30 -2.972554016637E-02  2.469837352764E-01 -4.191960609938E-01
C31 -4.419509363857E-01 -4.195847539344E-01  3.804719516189E-01
C32  4.419509363857E-01  4.195847539344E-01 -3.804719516189E-01
C33  4.969591946656E-01 -3.127210338518E-01  2.947985425769E-01
C34 -4.969591946656E-01  3.127210338518E-01 -2.947985425769E-01
C35 -4.913755418017E-01 -4.067528027880E-01  1.930989316056E-01
C36  4.913755418017E-01  4.067528027880E-01 -1.930989316056E-01
C37  4.480305146348E-01 -3.012680350140E-01  1.044533500402E-01
C38 -4.480305146348E-01  3.012680350140E-01 -1.044533500402E-01
C39  4.610643174788E-01 -3.942557537982E-01  4.943383515211E-03
C40 -4.610643174788E-01  3.942557537982E-01 -4.943383515211E-03
C41  4.003382699037E-01 -2.884468857638E-01 -8.529721700198E-02
C42 -4.003382699037E-01  2.884468857638E-01  8.529721700198E-02
C43 -4.135797889661E-01  3.816551319882E-01  1.832200713504E-01
C44  4.135797889661E-01 -3.816551319882E-01 -1.832200713504E-01
C45 -3.515006849939E-01  2.757790194849E-01  2.756159190192E-01
C46  3.515006849939E-01 -2.757790194849E-01 -2.756159190192E-01
C47 -3.652966732821E-01  3.717268024103E-01  3.707254951217E-01
C48  3.652966732821E-01 -3.717268024103E-01 -3.707254951217E-01
H49 -4.507051100446E-01 -3.458473797925E-01  4.571306369815E-01
H50  4.507051100446E-01  3.458473797925E-01 -4.571306369815E-01
H51  4.389240458851E-01 -1.540830776420E-01  3.023408043240E-01
H52 -4.389240458851E-01  1.540830776420E-01 -3.023408043240E-01
H53  3.897026717018E-01 -1.426981487274E-01  1.119160803982E-01
H54 -3.897026717018E-01  1.426981487274E-01 -1.119160803982E-01
H55  3.420398450337E-01 -1.298535384289E-01 -7.785951423382E-02
H56 -3.420398450337E-01  1.298535384289E-01  7.785951423382E-02
H57 -2.929094429279E-01  1.174796633771E-01  2.682880295972E-01
H58  2.929094429279E-01 -1.174796633771E-01 -2.682880295972E-01
H59 -3.175700818540E-01  2.902348821469E-01  4.401906460318E-01
H60  3.175700818540E-01 -2.902348821469E-01 -4.401906460318E-01


#===END

data_OPT_STEP_51

_symmetry_space_group_name_H-M 'P 1'
_cell_length_a      8.20128795
_cell_length_b      6.20327541
_cell_length_c     13.36155790
_cell_angle_alpha   97.985132
_cell_angle_beta  107.041836
_cell_angle_gamma   88.184945

loop_
_atom_site_label
_atom_site_fract_x
_atom_site_fract_y
_atom_site_fract_z
C1  1.272512528855E-01  4.948154358359E-02  3.862019825777E-01
C2 -1.272512528855E-01 -4.948154358359E-02 -3.862019825777E-01
C3  1.467931204623E-01  1.637001471430E-01  3.104229912885E-01
C4 -1.467931204623E-01 -1.637001471430E-01 -3.104229912885E-01
C5  8.517985980204E-02  7.820297076422E-02  2.007871104689E-01
C6 -8.517985980204E-02 -7.820297076422E-02 -2.007871104689E-01
C7  1.037050922099E-01  1.906370905221E-01  1.218283965729E-01
C8 -1.037050922099E-01 -1.906370905221E-01 -1.218283965729E-01
C9  4.215500421863E-02  1.052546391132E-01  1.432336629111E-02
C10 -4.215500421863E-02 -1.052546391132E-01 -1.432336629111E-02
C11  6.008364785723E-02  2.180042380806E-01 -6.624294440303E-02
C12 -6.008364785723E-02 -2.180042380806E-01  6.624294440303E-02
C13  1.137527617614E-03 -1.324618469703E-01  1.721261805101E-01
C14 -1.137527617614E-03  1.324618469703E-01 -1.721261805101E-01
C15 -1.642657800658E-02 -2.461631784551E-01  2.545948943341E-01
C16  1.642657800658E-02  2.461631784551E-01 -2.545948943341E-01
C17  4.452303006351E-02 -1.584815555293E-01  3.578456690999E-01
C18 -4.452303006351E-02  1.584815555293E-01 -3.578456690999E-01
H19  1.746344938562E-01  1.161127040310E-01  4.689368074843E-01
H20 -1.746344938562E-01 -1.161127040310E-01 -4.689368074843E-01
H21  2.086784083605E-01  3.223192754798E-01  3.314469579978E-01
H22 -2.086784083605E-01 -3.223192754798E-01 -3.314469579978E-01
H23  1.668693434721E-01  3.484814383284E-01  1.431873314971E-01
H24 -1.668693434721E-01 -3.484814383284E-01 -1.431873314971E-01
H25  1.231528349680E-01  3.758708029655E-01 -4.485339226802E-02
H26 -1.231528349680E-01 -3.758708029655E-01  4.485339226802E-02
H27 -7.955690375649E-02 -4.038187919506E-01  2.331447293745E-01
H28  7.955690375649E-02  4.038187919506E-01 -2.331447293745E-01
H29  3.011314500664E-02 -2.467358924853E-01  4.193590662274E-01
H30 -3.011314500664E-02  2.467358924853E-01 -4.193590662274E-01
C31 -4.417969180968E-01 -4.194731445526E-01  3.804709687315E-01
C32  4.417969180968E-01  4.194731445526E-01 -3.804709687315E-01
C33  4.970512782873E-01 -3.126786158778E-01  2.948018697043E-01
C34 -4.970512782873E-01  3.126786158778E-01 -2.948018697043E-01
C35 -4.912574778598E-01 -4.066810950248E-01  1.931123991367E-01
C36  4.912574778598E-01  4.066810950248E-01 -1.931123991367E-01
C37  4.481813870059E-01 -3.012141106165E-01  1.045032272929E-01
C38 -4.481813870059E-01  3.012141106165E-01 -1.045032272929E-01
C39  4.610950176361E-01 -3.942625735072E-01  4.962853469496E-03
C40 -4.610950176361E-01  3.942625735072E-01 -4.962853469496E-03
C41  4.004167099844E-01 -2.884659744755E-01 -8.524784501150E-02
C42 -4.004167099844E-01  2.884659744755E-01  8.524784501150E-02
C43 -4.135833077193E-01  3.817213893688E-01  1.831832268677E-01
C44  4.135833077193E-01 -3.817213893688E-01 -1.831832268677E-01
C45 -3.515353013917E-01  2.758651440523E-01  2.755596336273E-01
C46  3.515353013917E-01 -2.758651440523E-01 -2.755596336273E-01
C47 -3.652542147919E-01  3.718303920335E-01  3.706800083746E-01
C48  3.652542147919E-01 -3.718303920335E-01 -3.706800083746E-01
H49 -4.506120352540E-01 -3.458040443825E-01  4.571299010569E-01
H50  4.506120352540E-01  3.458040443825E-01 -4.571299010569E-01
H51  4.391865766874E-01 -1.540023034888E-01  3.023862926827E-01
H52 -4.391865766874E-01  1.540023034888E-01 -3.023862926827E-01
H53  3.898892621492E-01 -1.426724708650E-01  1.119907330773E-01
H54 -3.898892621492E-01  1.426724708650E-01 -1.119907330773E-01
H55  3.420666996866E-01 -1.299357521295E-01 -7.781518271538E-02
H56 -3.420666996866E-01  1.299357521295E-01  7.781518271538E-02
H57 -2.929757524385E-01  1.175859333277E-01  2.682094623858E-01
H58  2.929757524385E-01 -1.175859333277E-01 -2.682094623858E-01
H59 -3.175028953099E-01  2.903687723314E-01  4.401494796202E-01
H60  3.175028953099E-01 -2.903687723314E-01 -4.401494796202E-01


#===END

data_OPT_STEP_52

_symmetry_space_group_name_H-M 'P 1'
_cell_length_a      8.19321346
_cell_length_b      6.20585572
_cell_length_c     13.35932442
_cell_angle_alpha   97.953596
_cell_angle_beta  106.960316
_cell_angle_gamma   88.194203

loop_
_atom_site_label
_atom_site_fract_x
_atom_site_fract_y
_atom_site_fract_z
C1  1.273068655361E-01  4.975838410952E-02  3.861305264545E-01
C2 -1.273068655361E-01 -4.975838410952E-02 -3.861305264545E-01
C3  1.466285791273E-01  1.639894345087E-01  3.102571965491E-01
C4 -1.466285791273E-01 -1.639894345087E-01 -3.102571965491E-01
C5  8.497674313894E-02  7.846382498620E-02  2.006883286056E-01
C6 -8.497674313894E-02 -7.846382498620E-02 -2.006883286056E-01
C7  1.034748232623E-01  1.907928175397E-01  1.216543261390E-01
C8 -1.034748232623E-01 -1.907928175397E-01 -1.216543261390E-01
C9  4.204396749068E-02  1.052778920582E-01  1.423442547246E-02
C10 -4.204396749068E-02 -1.052778920582E-01 -1.423442547246E-02
C11  5.987013318718E-02  2.179583980421E-01 -6.641720538603E-02
C12 -5.987013318718E-02 -2.179583980421E-01  6.641720538603E-02
C13  1.177518005848E-03 -1.322542181082E-01  1.722077074979E-01
C14 -1.177518005848E-03  1.322542181082E-01 -1.722077074979E-01
C15 -1.625305441904E-02 -2.459238345090E-01  2.547613028788E-01
C16  1.625305441904E-02  2.459238345090E-01 -2.547613028788E-01
C17  4.476296479096E-02 -1.582317172727E-01  3.579406321039E-01
C18 -4.476296479096E-02  1.582317172727E-01 -3.579406321039E-01
H19  1.748024344955E-01  1.163237834610E-01  4.688270687809E-01
H20 -1.748024344955E-01 -1.163237834610E-01 -4.688270687809E-01
H21  2.083957098743E-01  3.226221277059E-01  3.311357903833E-01
H22 -2.083957098743E-01 -3.226221277059E-01 -3.311357903833E-01
H23  1.665649039578E-01  3.486159559215E-01  1.428659478050E-01
H24 -1.665649039578E-01 -3.486159559215E-01 -1.428659478050E-01
H25  1.228715377715E-01  3.758066184708E-01 -4.515165917030E-02
H26 -1.228715377715E-01 -3.758066184708E-01  4.515165917030E-02
H27 -7.923649060581E-02 -4.036134816526E-01  2.334283487278E-01
H28  7.923649060581E-02  4.036134816526E-01 -2.334283487278E-01
H29  3.036233488815E-02 -2.463867982489E-01  4.195163147867E-01
H30 -3.036233488815E-02  2.463867982489E-01 -4.195163147867E-01
C31 -4.416315101685E-01 -4.193613424870E-01  3.804507911044E-01
C32  4.416315101685E-01  4.193613424870E-01 -3.804507911044E-01
C33  4.972422877694E-01 -3.125941709050E-01  2.948016097353E-01
C34 -4.972422877694E-01  3.125941709050E-01 -2.948016097353E-01
C35 -4.911606534468E-01 -4.066353984157E-01  1.931017099262E-01
C36  4.911606534468E-01  4.066353984157E-01 -1.931017099262E-01
C37  4.481815708048E-01 -3.012527628892E-01  1.044941154912E-01
C38 -4.481815708048E-01  3.012527628892E-01 -1.044941154912E-01
C39  4.611507330363E-01 -3.942555937250E-01  4.983674702954E-03
C40 -4.611507330363E-01  3.942555937250E-01 -4.983674702954E-03
C41  4.004317955367E-01 -2.885117889903E-01 -8.521527731559E-02
C42 -4.004317955367E-01  2.885117889903E-01  8.521527731559E-02
C43 -4.135758758089E-01  3.817709316582E-01  1.831409411826E-01
C44  4.135758758089E-01 -3.817709316582E-01 -1.831409411826E-01
C45 -3.515671124617E-01  2.759182756174E-01  2.754976632985E-01
C46  3.515671124617E-01 -2.759182756174E-01 -2.754976632985E-01
C47 -3.651010898602E-01  3.719652574223E-01  3.706498351821E-01
C48  3.651010898602E-01 -3.719652574223E-01 -3.706498351821E-01
H49 -4.504537457615E-01 -3.457392284445E-01  4.571136664263E-01
H50  4.504537457615E-01  3.457392284445E-01 -4.571136664263E-01
H51  4.392165157729E-01 -1.540340134770E-01  3.023449557438E-01
H52 -4.392165157729E-01  1.540340134770E-01 -3.023449557438E-01
H53  3.901676627228E-01 -1.426123198865E-01  1.120541911896E-01
H54 -3.901676627228E-01  1.426123198865E-01 -1.120541911896E-01
H55  3.421778349246E-01 -1.299659430764E-01 -7.775854752097E-02
H56 -3.421778349246E-01  1.299659430764E-01  7.775854752097E-02
H57 -2.930460238439E-01  1.176428913240E-01  2.681321740457E-01
H58  2.930460238439E-01 -1.176428913240E-01 -2.681321740457E-01
H59 -3.174929660425E-01  2.904444550523E-01  4.400855893687E-01
H60  3.174929660425E-01 -2.904444550523E-01 -4.400855893687E-01


#===END

data_OPT_STEP_53

_symmetry_space_group_name_H-M 'P 1'
_cell_length_a      8.18525101
_cell_length_b      6.20824559
_cell_length_c     13.35843323
_cell_angle_alpha   97.919616
_cell_angle_beta  106.874099
_cell_angle_gamma   88.209345

loop_
_atom_site_label
_atom_site_fract_x
_atom_site_fract_y
_atom_site_fract_z
C1  1.273133748944E-01  4.999165852994E-02  3.860404285317E-01
C2 -1.273133748944E-01 -4.999165852994E-02 -3.860404285317E-01
C3  1.466135685975E-01  1.641338365502E-01  3.100920870582E-01
C4 -1.466135685975E-01 -1.641338365502E-01 -3.100920870582E-01
C5  8.503039687231E-02  7.853719762836E-02  2.006115600443E-01
C6 -8.503039687231E-02 -7.853719762836E-02 -2.006115600443E-01
C7  1.034202078297E-01  1.908155881090E-01  1.214891243160E-01
C8 -1.034202078297E-01 -1.908155881090E-01 -1.214891243160E-01
C9  4.199584179364E-02  1.052645790891E-01  1.414765980390E-02
C10 -4.199584179364E-02 -1.052645790891E-01 -1.414765980390E-02
C11  5.976787466563E-02  2.178613264854E-01 -6.658528824494E-02
C12 -5.976787466563E-02 -2.178613264854E-01  6.658528824494E-02
C13  1.330743544726E-03 -1.321585775590E-01  1.723012785934E-01
C14 -1.330743544726E-03  1.321585775590E-01 -1.723012785934E-01
C15 -1.602306876029E-02 -2.457572881939E-01  2.549357546498E-01
C16  1.602306876029E-02  2.457572881939E-01 -2.549357546498E-01
C17  4.490630829028E-02 -1.579991695775E-01  3.580236059605E-01
C18 -4.490630829028E-02  1.579991695775E-01 -3.580236059605E-01
H19  1.747632454943E-01  1.165935910635E-01  4.686692123189E-01
H20 -1.747632454943E-01 -1.165935910635E-01 -4.686692123189E-01
H21  2.083047462697E-01  3.227475786902E-01  3.308421078527E-01
H22 -2.083047462697E-01 -3.227475786902E-01 -3.308421078527E-01
H23  1.663960637725E-01  3.486473280091E-01  1.425694797603E-01
H24 -1.663960637725E-01 -3.486473280091E-01 -1.425694797603E-01
H25  1.226134341953E-01  3.757363452859E-01 -4.546153717811E-02
H26 -1.226134341953E-01 -3.757363452859E-01  4.546153717811E-02
H27 -7.891144247491E-02 -4.034410158080E-01  2.337295760769E-01
H28  7.891144247491E-02  4.034410158080E-01 -2.337295760769E-01
H29  3.052577016315E-02 -2.460902371880E-01  4.196532081750E-01
H30 -3.052577016315E-02  2.460902371880E-01 -4.196532081750E-01
C31 -4.414754073943E-01 -4.192422204344E-01  3.804402804427E-01
C32  4.414754073943E-01  4.192422204344E-01 -3.804402804427E-01
C33  4.974214696536E-01 -3.125045471434E-01  2.948155660404E-01
C34 -4.974214696536E-01  3.125045471434E-01 -2.948155660404E-01
C35 -4.910680951797E-01 -4.065870278906E-01  1.931041214665E-01
C36  4.910680951797E-01  4.065870278906E-01 -1.931041214665E-01
C37  4.483515837495E-01 -3.012003787998E-01  1.045292701032E-01
C38 -4.483515837495E-01  3.012003787998E-01 -1.045292701032E-01
C39  4.611775421285E-01 -3.942686452319E-01  4.992824485739E-03
C40 -4.611775421285E-01  3.942686452319E-01 -4.992824485739E-03
C41  4.004995771908E-01 -2.885407344086E-01 -8.517682629760E-02
C42 -4.004995771908E-01  2.885407344086E-01  8.517682629760E-02
C43 -4.135495736728E-01  3.818318078340E-01  1.831191000548E-01
C44  4.135495736728E-01 -3.818318078340E-01 -1.831191000548E-01
C45 -3.515393804451E-01  2.760188056673E-01  2.754561266560E-01
C46  3.515393804451E-01 -2.760188056673E-01 -2.754561266560E-01
C47 -3.650512207460E-01  3.720817446503E-01  3.706085593248E-01
C48  3.650512207460E-01 -3.720817446503E-01 -3.706085593248E-01
H49 -4.502679136360E-01 -3.456044431127E-01  4.570951568011E-01
H50  4.502679136360E-01  3.456044431127E-01 -4.570951568011E-01
H51  4.395026655943E-01 -1.539265944446E-01  3.023939666241E-01
H52 -4.395026655943E-01  1.539265944446E-01 -3.023939666241E-01
H53  3.902175089092E-01 -1.426518795154E-01  1.120651131048E-01
H54 -3.902175089092E-01  1.426518795154E-01 -1.120651131048E-01
H55  3.423098497494E-01 -1.300026176712E-01 -7.769373479185E-02
H56 -3.423098497494E-01  1.300026176712E-01  7.769373479185E-02
H57 -2.931267406259E-01  1.177263189886E-01  2.680588471640E-01
H58  2.931267406259E-01 -1.177263189886E-01 -2.680588471640E-01
H59 -3.174003973568E-01  2.906176912929E-01  4.400390504031E-01
H60  3.174003973568E-01 -2.906176912929E-01 -4.400390504031E-01


#===END

data_OPT_STEP_54

_symmetry_space_group_name_H-M 'P 1'
_cell_length_a      8.17758334
_cell_length_b      6.21065885
_cell_length_c     13.35685028
_cell_angle_alpha   97.886260
_cell_angle_beta  106.784491
_cell_angle_gamma   88.227479

loop_
_atom_site_label
_atom_site_fract_x
_atom_site_fract_y
_atom_site_fract_z
C1  1.274427695917E-01  5.013734726526E-02  3.859683370723E-01
C2 -1.274427695917E-01 -5.013734726526E-02 -3.859683370723E-01
C3  1.466400052972E-01  1.642455224956E-01  3.099385707609E-01
C4 -1.466400052972E-01 -1.642455224956E-01 -3.099385707609E-01
C5  8.518289069046E-02  7.853694280697E-02  2.005475918531E-01
C6 -8.518289069046E-02 -7.853694280697E-02 -2.005475918531E-01
C7  1.033660379890E-01  1.908322540200E-01  1.213268908415E-01
C8 -1.033660379890E-01 -1.908322540200E-01 -1.213268908415E-01
C9  4.193534093398E-02  1.052612621025E-01  1.406220654585E-02
C10 -4.193534093398E-02 -1.052612621025E-01 -1.406220654585E-02
C11  5.960559356141E-02  2.178151172837E-01 -6.675527957944E-02
C12 -5.960559356141E-02 -2.178151172837E-01  6.675527957944E-02
C13  1.499661828888E-03 -1.320934621300E-01  1.723956669805E-01
C14 -1.499661828888E-03  1.320934621300E-01 -1.723956669805E-01
C15 -1.580614446937E-02 -2.456056676796E-01  2.551056817786E-01
C16  1.580614446937E-02  2.456056676796E-01 -2.551056817786E-01
C17  4.509260910796E-02 -1.578091676522E-01  3.581126089105E-01
C18 -4.509260910796E-02  1.578091676522E-01 -3.581126089105E-01
H19  1.745390715423E-01  1.169752892979E-01  4.685001812440E-01
H20 -1.745390715423E-01 -1.169752892979E-01 -4.685001812440E-01
H21  2.081902006371E-01  3.228779741774E-01  3.305562777707E-01
H22 -2.081902006371E-01 -3.228779741774E-01 -3.305562777707E-01
H23  1.662220431550E-01  3.486774036692E-01  1.422775781754E-01
H24 -1.662220431550E-01 -3.486774036692E-01 -1.422775781754E-01
H25  1.224128366992E-01  3.756532846246E-01 -4.575668822312E-02
H26 -1.224128366992E-01 -3.756532846246E-01  4.575668822312E-02
H27 -7.858403993004E-02 -4.032929810441E-01  2.340276145852E-01
H28  7.858403993004E-02  4.032929810441E-01 -2.340276145852E-01
H29  3.083997305085E-02 -2.458968167351E-01  4.198088425769E-01
H30 -3.083997305085E-02  2.458968167351E-01 -4.198088425769E-01
C31 -4.413640305039E-01 -4.191785715931E-01  3.804253114584E-01
C32  4.413640305039E-01  4.191785715931E-01 -3.804253114584E-01
C33  4.975336644843E-01 -3.124760112689E-01  2.948179408798E-01
C34 -4.975336644843E-01  3.124760112689E-01 -2.948179408798E-01
C35 -4.909607143326E-01 -4.065384912882E-01  1.931123739563E-01
C36  4.909607143326E-01  4.065384912882E-01 -1.931123739563E-01
C37  4.484032131909E-01 -3.012226897344E-01  1.045367765797E-01
C38 -4.484032131909E-01  3.012226897344E-01 -1.045367765797E-01
C39  4.611872442041E-01 -3.942954856476E-01  4.998059928038E-03
C40 -4.611872442041E-01  3.942954856476E-01 -4.998059928038E-03
C41  4.005087929955E-01 -2.886132339023E-01 -8.515626442883E-02
C42 -4.005087929955E-01  2.886132339023E-01  8.515626442883E-02
C43 -4.134912668125E-01  3.819162752150E-01  1.831082083728E-01
C44  4.134912668125E-01 -3.819162752150E-01 -1.831082083728E-01
C45 -3.514782475303E-01  2.761452258571E-01  2.754257365341E-01
C46  3.514782475303E-01 -2.761452258571E-01 -2.754257365341E-01
C47 -3.650246808631E-01  3.721729022072E-01  3.705642091652E-01
C48  3.650246808631E-01 -3.721729022072E-01 -3.705642091652E-01
H49 -4.501311839978E-01 -3.455383888834E-01  4.570767837759E-01
H50  4.501311839978E-01  3.455383888834E-01 -4.570767837759E-01
H51  4.397615705156E-01 -1.538690187270E-01  3.024432341715E-01
H52 -4.397615705156E-01  1.538690187270E-01 -3.024432341715E-01
H53  3.903277204209E-01 -1.426868911297E-01  1.120931956082E-01
H54 -3.903277204209E-01  1.426868911297E-01 -1.120931956082E-01
H55  3.422953313919E-01 -1.301319354814E-01 -7.766806163468E-02
H56 -3.422953313919E-01  1.301319354814E-01  7.766806163468E-02
H57 -2.931097231638E-01  1.178772556687E-01  2.680122780899E-01
H58  2.931097231638E-01 -1.178772556687E-01 -2.680122780899E-01
H59 -3.173856773780E-01  2.907314353926E-01  4.399752512460E-01
H60  3.173856773780E-01 -2.907314353926E-01 -4.399752512460E-01


#===END

data_OPT_STEP_55

_symmetry_space_group_name_H-M 'P 1'
_cell_length_a      8.17029391
_cell_length_b      6.21302760
_cell_length_c     13.35469701
_cell_angle_alpha   97.854086
_cell_angle_beta  106.692617
_cell_angle_gamma   88.246611

loop_
_atom_site_label
_atom_site_fract_x
_atom_site_fract_y
_atom_site_fract_z
C1  1.274483854386E-01  5.039132727702E-02  3.858880632040E-01
C2 -1.274483854386E-01 -5.039132727702E-02 -3.858880632040E-01
C3  1.465969330649E-01  1.644182826876E-01  3.097748235551E-01
C4 -1.465969330649E-01 -1.644182826876E-01 -3.097748235551E-01
C5  8.512268601727E-02  7.867597152558E-02  2.004563881767E-01
C6 -8.512268601727E-02 -7.867597152558E-02 -2.004563881767E-01
C7  1.033053007343E-01  1.908654765995E-01  1.211620459198E-01
C8 -1.033053007343E-01 -1.908654765995E-01 -1.211620459198E-01
C9  4.189704006292E-02  1.052471271305E-01  1.397836602996E-02
C10 -4.189704006292E-02 -1.052471271305E-01 -1.397836602996E-02
C11  5.948060457900E-02  2.177487033172E-01 -6.692334169169E-02
C12 -5.948060457900E-02 -2.177487033172E-01  6.692334169169E-02
C13  1.614733637169E-03 -1.319832432676E-01  1.724849951130E-01
C14 -1.614733637169E-03  1.319832432676E-01 -1.724849951130E-01
C15 -1.557941060867E-02 -2.454578600403E-01  2.552837368127E-01
C16  1.557941060867E-02  2.454578600403E-01 -2.552837368127E-01
C17  4.525932995533E-02 -1.575781155747E-01  3.582086004827E-01
C18 -4.525932995533E-02  1.575781155747E-01 -3.582086004827E-01
H19  1.746901310479E-01  1.171597745423E-01  4.683787116810E-01
H20 -1.746901310479E-01 -1.171597745423E-01 -4.683787116810E-01
H21  2.080880540030E-01  3.230291302998E-01  3.302655688585E-01
H22 -2.080880540030E-01 -3.230291302998E-01 -3.302655688585E-01
H23  1.661072633798E-01  3.486862028395E-01  1.419830749601E-01
H24 -1.661072633798E-01 -3.486862028395E-01 -1.419830749601E-01
H25  1.221822621249E-01  3.755927374504E-01 -4.605711622155E-02
H26 -1.221822621249E-01 -3.755927374504E-01  4.605711622155E-02
H27 -7.827802118097E-02 -4.031374957784E-01  2.343387338009E-01
H28  7.827802118097E-02  4.031374957784E-01 -2.343387338009E-01
H29  3.106375329590E-02 -2.456037862640E-01  4.199767270995E-01
H30 -3.106375329590E-02  2.456037862640E-01 -4.199767270995E-01
C31 -4.412340895642E-01 -4.191091710368E-01  3.804194240252E-01
C32  4.412340895642E-01  4.191091710368E-01 -3.804194240252E-01
C33  4.976984700657E-01 -3.124248527848E-01  2.948376988019E-01
C34 -4.976984700657E-01  3.124248527848E-01 -2.948376988019E-01
C35 -4.908610961003E-01 -4.064951044011E-01  1.931207865877E-01
C36  4.908610961003E-01  4.064951044011E-01 -1.931207865877E-01
C37  4.485368365790E-01 -3.012038995424E-01  1.045751939139E-01
C38 -4.485368365790E-01  3.012038995424E-01 -1.045751939139E-01
C39  4.612197042756E-01 -3.943118910126E-01  5.014273706822E-03
C40 -4.612197042756E-01  3.943118910126E-01 -5.014273706822E-03
C41  4.004826779862E-01 -2.887060517928E-01 -8.513507617243E-02
C42 -4.004826779862E-01  2.887060517928E-01  8.513507617243E-02
C43 -4.134375962286E-01  3.820056238287E-01  1.830890572564E-01
C44  4.134375962286E-01 -3.820056238287E-01 -1.830890572564E-01
C45 -3.514221897122E-01  2.762765366378E-01  2.753879498599E-01
C46  3.514221897122E-01 -2.762765366378E-01 -2.753879498599E-01
C47 -3.649125372025E-01  3.723002690574E-01  3.705348815680E-01
C48  3.649125372025E-01 -3.723002690574E-01 -3.705348815680E-01
H49 -4.499867183856E-01 -3.454850611881E-01  4.570776897015E-01
H50  4.499867183856E-01  3.454850611881E-01 -4.570776897015E-01
H51  4.398702486949E-01 -1.538975499767E-01  3.024634002278E-01
H52 -4.398702486949E-01  1.538975499767E-01 -3.024634002278E-01
H53  3.904495386827E-01 -1.427264128712E-01  1.121436892130E-01
H54 -3.904495386827E-01  1.427264128712E-01 -1.121436892130E-01
H55  3.423720198016E-01 -1.302236345445E-01 -7.761096991317E-02
H56 -3.423720198016E-01  1.302236345445E-01  7.761096991317E-02
H57 -2.930475856388E-01  1.180621590669E-01  2.679652292967E-01
H58  2.930475856388E-01 -1.180621590669E-01 -2.679652292967E-01
H59 -3.172553168430E-01  2.908920075961E-01  4.399358195415E-01
H60  3.172553168430E-01 -2.908920075961E-01 -4.399358195415E-01


#===END

data_OPT_STEP_56

_symmetry_space_group_name_H-M 'P 1'
_cell_length_a      8.15656704
_cell_length_b      6.21698628
_cell_length_c     13.35058095
_cell_angle_alpha   97.785100
_cell_angle_beta  106.501855
_cell_angle_gamma   88.291569

loop_
_atom_site_label
_atom_site_fract_x
_atom_site_fract_y
_atom_site_fract_z
C1  1.276200237143E-01  5.069037295485E-02  3.857299505545E-01
C2 -1.276200237143E-01 -5.069037295485E-02 -3.857299505545E-01
C3  1.465987283920E-01  1.646544730687E-01  3.094467275900E-01
C4 -1.465987283920E-01 -1.646544730687E-01 -3.094467275900E-01
C5  8.510420005044E-02  7.886908033118E-02  2.002835971244E-01
C6 -8.510420005044E-02 -7.886908033118E-02 -2.002835971244E-01
C7  1.031748308906E-01  1.909492936580E-01  1.208272498408E-01
C8 -1.031748308906E-01 -1.909492936580E-01 -1.208272498408E-01
C9  4.178795952176E-02  1.052496974968E-01  1.380349369478E-02
C10 -4.178795952176E-02 -1.052496974968E-01 -1.380349369478E-02
C11  5.922908055116E-02  2.176518120259E-01 -6.726437998369E-02
C12 -5.922908055116E-02 -2.176518120259E-01  6.726437998369E-02
C13  1.822939136042E-03 -1.317977391767E-01  1.726622434937E-01
C14 -1.822939136042E-03  1.317977391767E-01 -1.726622434937E-01
C15 -1.521990105799E-02 -2.451896458273E-01  2.556253737821E-01
C16  1.521990105799E-02  2.451896458273E-01 -2.556253737821E-01
C17  4.566217535632E-02 -1.572892880882E-01  3.583924266962E-01
C18 -4.566217535632E-02  1.572892880882E-01 -3.583924266962E-01
H19  1.749503302827E-01  1.174242233776E-01  4.681128588910E-01
H20 -1.749503302827E-01 -1.174242233776E-01 -4.681128588910E-01
H21  2.079605213653E-01  3.232457553890E-01  3.296835894933E-01
H22 -2.079605213653E-01 -3.232457553890E-01 -3.296835894933E-01
H23  1.658335447394E-01  3.487626457759E-01  1.413822612587E-01
H24 -1.658335447394E-01 -3.487626457759E-01 -1.413822612587E-01
H25  1.217632293811E-01  3.755019054397E-01 -4.666267526918E-02
H26 -1.217632293811E-01 -3.755019054397E-01  4.666267526918E-02
H27 -7.776769583720E-02 -4.028632850362E-01  2.349407999756E-01
H28  7.776769583720E-02  4.028632850362E-01 -2.349407999756E-01
H29  3.142132589258E-02 -2.451495866434E-01  4.202777825308E-01
H30 -3.142132589258E-02  2.451495866434E-01 -4.202777825308E-01
C31 -4.409418451559E-01 -4.189198151390E-01  3.804039084680E-01
C32  4.409418451559E-01  4.189198151390E-01 -3.804039084680E-01
C33  4.979297121121E-01 -3.123559773093E-01  2.948494297125E-01
C34 -4.979297121121E-01  3.123559773093E-01 -2.948494297125E-01
C35 -4.907077071053E-01 -4.064309425118E-01  1.931232278400E-01
C36  4.907077071053E-01  4.064309425118E-01 -1.931232278400E-01
C37  4.486673253949E-01 -3.012346887155E-01  1.046177470943E-01
C38 -4.486673253949E-01  3.012346887155E-01 -1.046177470943E-01
C39  4.612667056304E-01 -3.943477488178E-01  5.046509672970E-03
C40 -4.612667056304E-01  3.943477488178E-01 -5.046509672970E-03
C41  4.005833733779E-01 -2.887923001906E-01 -8.504583429282E-02
C42 -4.005833733779E-01  2.887923001906E-01  8.504583429282E-02
C43 -4.133851471994E-01  3.821402519717E-01  1.830297829646E-01
C44  4.133851471994E-01 -3.821402519717E-01 -1.830297829646E-01
C45 -3.513356978982E-01  2.765101747533E-01  2.752944859146E-01
C46  3.513356978982E-01 -2.765101747533E-01 -2.752944859146E-01
C47 -3.646887753913E-01  3.725724152122E-01  3.704679894729E-01
C48  3.646887753913E-01 -3.725724152122E-01 -3.704679894729E-01
H49 -4.496614682923E-01 -3.453133920787E-01  4.570683335322E-01
H50  4.496614682923E-01  3.453133920787E-01 -4.570683335322E-01
H51  4.402203764459E-01 -1.538649150113E-01  3.025290856169E-01
H52 -4.402203764459E-01  1.538649150113E-01 -3.025290856169E-01
H53  3.906922507784E-01 -1.427958938113E-01  1.122429441993E-01
H54 -3.906922507784E-01  1.427958938113E-01 -1.122429441993E-01
H55  3.424548897409E-01 -1.304110741054E-01 -7.749648734506E-02
H56 -3.424548897409E-01  1.304110741054E-01  7.749648734506E-02
H57 -2.930325754056E-01  1.183500124538E-01  2.678303983723E-01
H58  2.930325754056E-01 -1.183500124538E-01 -2.678303983723E-01
H59 -3.169896469479E-01  2.912471226546E-01  4.398499133598E-01
H60  3.169896469479E-01 -2.912471226546E-01 -4.398499133598E-01


#===END

data_OPT_STEP_57

_symmetry_space_group_name_H-M 'P 1'
_cell_length_a      8.14328866
_cell_length_b      6.22081783
_cell_length_c     13.34652253
_cell_angle_alpha   97.716560
_cell_angle_beta  106.309192
_cell_angle_gamma   88.336900

loop_
_atom_site_label
_atom_site_fract_x
_atom_site_fract_y
_atom_site_fract_z
C1  1.277750154860E-01  5.098539173000E-02  3.855684494102E-01
C2 -1.277750154860E-01 -5.098539173000E-02 -3.855684494102E-01
C3  1.466304161836E-01  1.648639968464E-01  3.091236784133E-01
C4 -1.466304161836E-01 -1.648639968464E-01 -3.091236784133E-01
C5  8.517790518114E-02  7.899913145667E-02  2.001222574128E-01
C6 -8.517790518114E-02 -7.899913145667E-02 -2.001222574128E-01
C7  1.030824495824E-01  1.910050602308E-01  1.204977754962E-01
C8 -1.030824495824E-01 -1.910050602308E-01 -1.204977754962E-01
C9  4.169768745757E-02  1.052405672980E-01  1.363131892910E-02
C10 -4.169768745757E-02 -1.052405672980E-01 -1.363131892910E-02
C11  5.895399284266E-02  2.175734163872E-01 -6.760592229440E-02
C12 -5.895399284266E-02 -2.175734163872E-01  6.760592229440E-02
C13  2.082174927975E-03 -1.316517505456E-01  1.728438302211E-01
C14 -2.082174927975E-03  1.316517505456E-01 -1.728438302211E-01
C15 -1.479055290784E-02 -2.449728759252E-01  2.559715624585E-01
C16  1.479055290784E-02  2.449728759252E-01 -2.559715624585E-01
C17  4.596978606775E-02 -1.569566697986E-01  3.585646512586E-01
C18 -4.596978606775E-02  1.569566697986E-01 -3.585646512586E-01
H19  1.749785146774E-01  1.178180880482E-01  4.678190729358E-01
H20 -1.749785146774E-01 -1.178180880482E-01 -4.678190729358E-01
H21  2.078762770261E-01  3.234276111792E-01  3.291091866122E-01
H22 -2.078762770261E-01 -3.234276111792E-01 -3.291091866122E-01
H23  1.656136788846E-01  3.488012980880E-01  1.407935821774E-01
H24 -1.656136788846E-01 -3.488012980880E-01 -1.407935821774E-01
H25  1.213784241446E-01  3.753953005502E-01 -4.726141805867E-02
H26 -1.213784241446E-01 -3.753953005502E-01  4.726141805867E-02
H27 -7.721577415702E-02 -4.026258905717E-01  2.355444164490E-01
H28  7.721577415702E-02  4.026258905717E-01 -2.355444164490E-01
H29  3.194286227999E-02 -2.448121768388E-01  4.205867403755E-01
H30 -3.194286227999E-02  2.448121768388E-01 -4.205867403755E-01
C31 -4.406146911993E-01 -4.187226137961E-01  3.803995902101E-01
C32  4.406146911993E-01  4.187226137961E-01 -3.803995902101E-01
C33  4.982552973340E-01 -3.122452186631E-01  2.948872945685E-01
C34 -4.982552973340E-01  3.122452186631E-01 -2.948872945685E-01
C35 -4.905124883126E-01 -4.063517918343E-01  1.931384192079E-01
C36  4.905124883126E-01  4.063517918343E-01 -1.931384192079E-01
C37  4.488324988560E-01 -3.012508100733E-01  1.046696808543E-01
C38 -4.488324988560E-01  3.012508100733E-01 -1.046696808543E-01
C39  4.613175534643E-01 -3.943836651224E-01  5.077510100138E-03
C40 -4.613175534643E-01  3.943836651224E-01 -5.077510100138E-03
C41  4.005438672040E-01 -2.889563314820E-01 -8.499043399521E-02
C42 -4.005438672040E-01  2.889563314820E-01  8.499043399521E-02
C43 -4.132728453074E-01  3.823009522737E-01  1.829858003674E-01
C44  4.132728453074E-01 -3.823009522737E-01 -1.829858003674E-01
C45 -3.511898579052E-01  2.767693394869E-01  2.752117564190E-01
C46  3.511898579052E-01 -2.767693394869E-01 -2.752117564190E-01
C47 -3.644228760135E-01  3.728617716270E-01  3.704106516260E-01
C48  3.644228760135E-01 -3.728617716270E-01 -3.704106516260E-01
H49 -4.493237592554E-01 -3.451431998891E-01  4.570621638258E-01
H50  4.493237592554E-01  3.451431998891E-01 -4.570621638258E-01
H51  4.404613304370E-01 -1.538915653158E-01  3.025788799640E-01
H52 -4.404613304370E-01  1.538915653158E-01 -3.025788799640E-01
H53  3.908720438057E-01 -1.428977527738E-01  1.123287586515E-01
H54 -3.908720438057E-01  1.428977527738E-01 -1.123287586515E-01
H55  3.425695019111E-01 -1.305918421653E-01 -7.737317848273E-02
H56 -3.425695019111E-01  1.305918421653E-01  7.737317848273E-02
H57 -2.929467159161E-01  1.186706179393E-01  2.677063529360E-01
H58  2.929467159161E-01 -1.186706179393E-01 -2.677063529360E-01
H59 -3.167509691748E-01  2.915862940718E-01  4.397525416331E-01
H60  3.167509691748E-01 -2.915862940718E-01 -4.397525416331E-01


#===END

data_OPT_STEP_58

_symmetry_space_group_name_H-M 'P 1'
_cell_length_a      8.11920906
_cell_length_b      6.22745071
_cell_length_c     13.33646124
_cell_angle_alpha   97.576535
_cell_angle_beta  105.909553
_cell_angle_gamma   88.440494

loop_
_atom_site_label
_atom_site_fract_x
_atom_site_fract_y
_atom_site_fract_z
C1  1.280321226053E-01  5.155833917822E-02  3.852535180973E-01
C2 -1.280321226053E-01 -5.155833917822E-02 -3.852535180973E-01
C3  1.466342399428E-01  1.652865806970E-01  3.084813267377E-01
C4 -1.466342399428E-01 -1.652865806970E-01 -3.084813267377E-01
C5  8.525914553325E-02  7.924480610051E-02  1.997951754537E-01
C6 -8.525914553325E-02 -7.924480610051E-02 -1.997951754537E-01
C7  1.028714734595E-01  1.911221625009E-01  1.198435827553E-01
C8 -1.028714734595E-01 -1.911221625009E-01 -1.198435827553E-01
C9  4.153614562185E-02  1.052301733145E-01  1.329503028332E-02
C10 -4.153614562185E-02 -1.052301733145E-01 -1.329503028332E-02
C11  5.851976711703E-02  2.174255852303E-01 -6.826406747803E-02
C12 -5.851976711703E-02 -2.174255852303E-01  6.826406747803E-02
C13  2.522177701378E-03 -1.314082201974E-01  1.731923884079E-01
C14 -2.522177701378E-03  1.314082201974E-01 -1.731923884079E-01
C15 -1.404870083678E-02 -2.445893803749E-01  2.566470272008E-01
C16  1.404870083678E-02  2.445893803749E-01 -2.566470272008E-01
C17  4.662051274189E-02 -1.564080055673E-01  3.589182178587E-01
C18 -4.662051274189E-02  1.564080055673E-01 -3.589182178587E-01
H19  1.751445622834E-01  1.184986394216E-01  4.672632679465E-01
H20 -1.751445622834E-01 -1.184986394216E-01 -4.672632679465E-01
H21  2.076026551844E-01  3.238532799714E-01  3.279506361145E-01
H22 -2.076026551844E-01 -3.238532799714E-01 -3.279506361145E-01
H23  1.651163834271E-01  3.489297980996E-01  1.396330901857E-01
H24 -1.651163834271E-01 -3.489297980996E-01 -1.396330901857E-01
H25  1.206648701767E-01  3.752524578176E-01 -4.842510234138E-02
H26 -1.206648701767E-01 -3.752524578176E-01  4.842510234138E-02
H27 -7.616738684781E-02 -4.022665634183E-01  2.367331352516E-01
H28  7.616738684781E-02  4.022665634183E-01 -2.367331352516E-01
H29  3.281379149576E-02 -2.441455801903E-01  4.212006916992E-01
H30 -3.281379149576E-02  2.441455801903E-01 -4.212006916992E-01
C31 -4.400271826450E-01 -4.184649078172E-01  3.803866229953E-01
C32  4.400271826450E-01  4.184649078172E-01 -3.803866229953E-01
C33  4.988067577157E-01 -3.121483192908E-01  2.949518164166E-01
C34 -4.988067577157E-01  3.121483192908E-01 -2.949518164166E-01
C35 -4.901365864535E-01 -4.062358423509E-01  1.931711429758E-01
C36  4.901365864535E-01  4.062358423509E-01 -1.931711429758E-01
C37  4.491075503246E-01 -3.013356465550E-01  1.047642712020E-01
C38 -4.491075503246E-01  3.013356465550E-01 -1.047642712020E-01
C39  4.613506478819E-01 -3.944978454918E-01  5.123392007143E-03
C40 -4.613506478819E-01  3.944978454918E-01 -5.123392007143E-03
C41  4.004292407747E-01 -2.893033017765E-01 -8.489320560354E-02
C42 -4.004292407747E-01  2.893033017765E-01  8.489320560354E-02
C43 -4.129691014671E-01  3.826458487149E-01  1.829218375808E-01
C44  4.129691014671E-01 -3.826458487149E-01 -1.829218375808E-01
C45 -3.508029436342E-01  2.773018457302E-01  2.750768504318E-01
C46  3.508029436342E-01 -2.773018457302E-01 -2.750768504318E-01
C47 -3.639257172505E-01  3.733419637711E-01  3.702936041588E-01
C48  3.639257172505E-01 -3.733419637711E-01 -3.702936041588E-01
H49 -4.486915632102E-01 -3.449641127768E-01  4.570628477264E-01
H50  4.486915632102E-01  3.449641127768E-01 -4.570628477264E-01
H51  4.410371065257E-01 -1.539772265835E-01  3.027171846705E-01
H52 -4.410371065257E-01  1.539772265835E-01 -3.027171846705E-01
H53  3.911422103081E-01 -1.431770180209E-01  1.124849118205E-01
H54 -3.911422103081E-01  1.431770180209E-01 -1.124849118205E-01
H55  3.425476022141E-01 -1.310851113197E-01 -7.719280215225E-02
H56 -3.425476022141E-01  1.310851113197E-01  7.719280215225E-02
H57 -2.925912805433E-01  1.193763391662E-01  2.675079244730E-01
H58  2.925912805433E-01 -1.193763391662E-01 -2.675079244730E-01
H59 -3.162022506150E-01  2.921897305471E-01  4.395822550896E-01
H60  3.162022506150E-01 -2.921897305471E-01 -4.395822550896E-01


#===END

data_OPT_STEP_59

_symmetry_space_group_name_H-M 'P 1'
_cell_length_a      8.07943638
_cell_length_b      6.23616583
_cell_length_c     13.31874574
_cell_angle_alpha   97.317529
_cell_angle_beta  105.080987
_cell_angle_gamma   88.648462

loop_
_atom_site_label
_atom_site_fract_x
_atom_site_fract_y
_atom_site_fract_z
C1  1.289597395057E-01  5.212923162360E-02  3.846554332984E-01
C2 -1.289597395057E-01 -5.212923162360E-02 -3.846554332984E-01
C3  1.471616837509E-01  1.656591017037E-01  3.072436715449E-01
C4 -1.471616837509E-01 -1.656591017037E-01 -3.072436715449E-01
C5  8.561800573966E-02  7.952090062173E-02  1.991546069542E-01
C6 -8.561800573966E-02 -7.952090062173E-02 -1.991546069542E-01
C7  1.027548062781E-01  1.911980892243E-01  1.185576101864E-01
C8 -1.027548062781E-01 -1.911980892243E-01 -1.185576101864E-01
C9  4.127381341390E-02  1.052259095684E-01  1.262415883612E-02
C10 -4.127381341390E-02 -1.052259095684E-01 -1.262415883612E-02
C11  5.767188620765E-02  2.172902537861E-01 -6.958590188158E-02
C12 -5.767188620765E-02 -2.172902537861E-01  6.958590188158E-02
C13  3.341048633846E-03 -1.310850844291E-01  1.738843778452E-01
C14 -3.341048633846E-03  1.310850844291E-01 -1.738843778452E-01
C15 -1.273919108431E-02 -2.440744854300E-01  2.579782216014E-01
C16  1.273919108431E-02  2.440744854300E-01 -2.579782216014E-01
C17  4.793234987763E-02 -1.557369678898E-01  3.596177644539E-01
C18 -4.793234987763E-02  1.557369678898E-01 -3.596177644539E-01
H19  1.760526651839E-01  1.191453657731E-01  4.661998518413E-01
H20 -1.760526651839E-01 -1.191453657731E-01 -4.661998518413E-01
H21  2.079029216510E-01  3.241158736205E-01  3.257467174488E-01
H22 -2.079029216510E-01 -3.241158736205E-01 -3.257467174488E-01
H23  1.646836306765E-01  3.489555174865E-01  1.373525347282E-01
H24 -1.646836306765E-01 -3.489555174865E-01 -1.373525347282E-01
H25  1.194957510882E-01  3.750663595438E-01 -5.074725596090E-02
H26 -1.194957510882E-01 -3.750663595438E-01  5.074725596090E-02
H27 -7.456728929271E-02 -4.016683964413E-01  2.390795364880E-01
H28  7.456728929271E-02  4.016683964413E-01 -2.390795364880E-01
H29  3.432122888676E-02 -2.432147450496E-01  4.223939861469E-01
H30 -3.432122888676E-02  2.432147450496E-01 -4.223939861469E-01
C31 -4.387898750028E-01 -4.176337906716E-01  3.804519711119E-01
C32  4.387898750028E-01  4.176337906716E-01 -3.804519711119E-01
C33  4.997612204643E-01 -3.117629805626E-01  2.951579163789E-01
C34 -4.997612204643E-01  3.117629805626E-01 -2.951579163789E-01
C35 -4.894401668548E-01 -4.058810162098E-01  1.932922418987E-01
C36  4.894401668548E-01  4.058810162098E-01 -1.932922418987E-01
C37  4.495931682083E-01 -3.013806829305E-01  1.050407050296E-01
C38 -4.495931682083E-01  3.013806829305E-01 -1.050407050296E-01
C39  4.614389384803E-01 -3.946589280139E-01  5.267731084691E-03
C40 -4.614389384803E-01  3.946589280139E-01 -5.267731084691E-03
C41  4.003238216660E-01 -2.898575289163E-01 -8.459484969097E-02
C42 -4.003238216660E-01  2.898575289163E-01  8.459484969097E-02
C43 -4.124703652250E-01  3.833107032302E-01  1.827500745482E-01
C44  4.124703652250E-01 -3.833107032302E-01 -1.827500745482E-01
C45 -3.500014415433E-01  2.784246821592E-01  2.747634394693E-01
C46  3.500014415433E-01 -2.784246821592E-01 -2.747634394693E-01
C47 -3.627475129632E-01  3.745607815750E-01  3.701012329427E-01
C48  3.627475129632E-01 -3.745607815750E-01 -3.701012329427E-01
H49 -4.473119186321E-01 -3.441617934128E-01  4.571921539328E-01
H50  4.473119186321E-01  3.441617934128E-01 -4.571921539328E-01
H51  4.420718523536E-01 -1.538749788287E-01  3.031352638108E-01
H52 -4.420718523536E-01  1.538749788287E-01 -3.031352638108E-01
H53  3.918601296719E-01 -1.434255388680E-01  1.130097819345E-01
H54 -3.918601296719E-01  1.434255388680E-01 -1.130097819345E-01
H55  3.424449639847E-01 -1.319547304657E-01 -7.670882927634E-02
H56 -3.424449639847E-01  1.319547304657E-01  7.670882927634E-02
H57 -2.918649635174E-01  1.207837848694E-01  2.670037627257E-01
H58  2.918649635174E-01 -1.207837848694E-01 -2.670037627257E-01
H59 -3.148068163284E-01  2.937600214047E-01  4.392840317168E-01
H60  3.148068163284E-01 -2.937600214047E-01 -4.392840317168E-01


#===END

data_OPT_STEP_60

_symmetry_space_group_name_H-M 'P 1'
_cell_length_a      7.99820308
_cell_length_b      6.25093182
_cell_length_c     13.28064699
_cell_angle_alpha   96.454181
_cell_angle_beta  103.543313
_cell_angle_gamma   89.190605

loop_
_atom_site_label
_atom_site_fract_x
_atom_site_fract_y
_atom_site_fract_z
C1  1.301325389725E-01  5.242737844352E-02  3.832639696793E-01
C2 -1.301325389725E-01 -5.242737844352E-02 -3.832639696793E-01
C3  1.472127172515E-01  1.660843232391E-01  3.044441311515E-01
C4 -1.472127172515E-01 -1.660843232391E-01 -3.044441311515E-01
C5  8.603453143562E-02  7.963491217629E-02  1.977373222389E-01
C6 -8.603453143562E-02 -7.963491217629E-02 -1.977373222389E-01
C7  1.019689323569E-01  1.915053976463E-01  1.157726364588E-01
C8 -1.019689323569E-01 -1.915053976463E-01 -1.157726364588E-01
C9  4.058338699787E-02  1.053849318617E-01  1.117574962951E-02
C10 -4.058338699787E-02 -1.053849318617E-01 -1.117574962951E-02
C11  5.578184828129E-02  2.176049315909E-01 -7.240870979296E-02
C12 -5.578184828129E-02 -2.176049315909E-01  7.240870979296E-02
C13  5.207779558008E-03 -1.313278869447E-01  1.753690483048E-01
C14 -5.207779558008E-03  1.313278869447E-01 -1.753690483048E-01
C15 -9.735971988711E-03 -2.444294520216E-01  2.608258130127E-01
C16  9.735971988711E-03  2.444294520216E-01 -2.608258130127E-01
C17  5.063332028858E-02 -1.558085651317E-01  3.610876983316E-01
C18 -5.063332028858E-02  1.558085651317E-01 -3.610876983316E-01
H19  1.767426045097E-01  1.196665000569E-01  4.637638034611E-01
H20 -1.767426045097E-01 -1.196665000569E-01 -4.637638034611E-01
H21  2.069621849946E-01  3.247481447991E-01  3.207864486488E-01
H22 -2.069621849946E-01 -3.247481447991E-01 -3.207864486488E-01
H23  1.627372280487E-01  3.495823840136E-01  1.324551486931E-01
H24 -1.627372280487E-01 -3.495823840136E-01 -1.324551486931E-01
H25  1.167150513047E-01  3.755328257820E-01 -5.569747381895E-02
H26 -1.167150513047E-01 -3.755328257820E-01  5.569747381895E-02
H27 -7.042938791212E-02 -4.023227510664E-01  2.441487605169E-01
H28  7.042938791212E-02  4.023227510664E-01 -2.441487605169E-01
H29  3.779598675289E-02 -2.432670253928E-01  4.249674674166E-01
H30 -3.779598675289E-02  2.432670253928E-01 -4.249674674166E-01
C31 -4.363724454494E-01 -4.163898067944E-01  3.801366956657E-01
C32  4.363724454494E-01  4.163898067944E-01 -3.801366956657E-01
C33 -4.979035880737E-01 -3.111008096625E-01  2.948993124804E-01
C34  4.979035880737E-01  3.111008096625E-01 -2.948993124804E-01
C35 -4.881327526230E-01 -4.054066222884E-01  1.930942754582E-01
C36  4.881327526230E-01  4.054066222884E-01 -1.930942754582E-01
C37  4.507474015120E-01 -3.015422610590E-01  1.049141500437E-01
C38 -4.507474015120E-01  3.015422610590E-01 -1.049141500437E-01
C39  4.618353416893E-01 -3.949044460615E-01  5.267146401177E-03
C40 -4.618353416893E-01  3.949044460615E-01 -5.267146401177E-03
C41  4.005059285179E-01 -2.907464973599E-01 -8.453332077862E-02
C42 -4.005059285179E-01  2.907464973599E-01  8.453332077862E-02
C43 -4.118082717455E-01  3.843484984308E-01  1.825991694687E-01
C44  4.118082717455E-01 -3.843484984308E-01 -1.825991694687E-01
C45 -3.491073925679E-01  2.800940785372E-01  2.745383610263E-01
C46  3.491073925679E-01 -2.800940785372E-01 -2.745383610263E-01
C47 -3.609068124740E-01  3.764214504070E-01  3.698523715751E-01
C48  3.609068124740E-01 -3.764214504070E-01 -3.698523715751E-01
H49 -4.445680714520E-01 -3.432220190001E-01  4.567882660778E-01
H50  4.445680714520E-01  3.432220190001E-01 -4.567882660778E-01
H51  4.446255144414E-01 -1.538160603697E-01  3.027920063367E-01
H52 -4.446255144414E-01  1.538160603697E-01 -3.027920063367E-01
H53  3.935054526187E-01 -1.440286799041E-01  1.128495352331E-01
H54 -3.935054526187E-01  1.440286799041E-01 -1.128495352331E-01
H55  3.433197908557E-01 -1.331770761681E-01 -7.663294393499E-02
H56 -3.433197908557E-01  1.331770761681E-01  7.663294393499E-02
H57 -2.915215671205E-01  1.228630138492E-01  2.668163473824E-01
H58  2.915215671205E-01 -1.228630138492E-01 -2.668163473824E-01
H59 -3.132214033778E-01  2.958900312639E-01  4.389256278259E-01
H60  3.132214033778E-01 -2.958900312639E-01 -4.389256278259E-01


#===END

data_OPT_STEP_61

_symmetry_space_group_name_H-M 'P 1'
_cell_length_a      7.83179751
_cell_length_b      6.32186325
_cell_length_c     13.21899751
_cell_angle_alpha   96.072965
_cell_angle_beta  100.051245
_cell_angle_gamma   89.897894

loop_
_atom_site_label
_atom_site_fract_x
_atom_site_fract_y
_atom_site_fract_z
C1  1.322945326291E-01  5.431452273869E-02  3.803652687278E-01
C2 -1.322945326291E-01 -5.431452273869E-02 -3.803652687278E-01
C3  1.479998936008E-01  1.671037532942E-01  2.998958787934E-01
C4 -1.479998936008E-01 -1.671037532942E-01 -2.998958787934E-01
C5  8.736725754971E-02  8.006415975144E-02  1.953798287888E-01
C6 -8.736725754971E-02 -8.006415975144E-02 -1.953798287888E-01
C7  1.022078982007E-01  1.908258231988E-01  1.118092506183E-01
C8 -1.022078982007E-01 -1.908258231988E-01 -1.118092506183E-01
C9  4.025515087269E-02  1.047624577168E-01  9.232258566469E-03
C10 -4.025515087269E-02 -1.047624577168E-01 -9.232258566469E-03
C11  5.406703203129E-02  2.159442436795E-01 -7.599135847642E-02
C12 -5.406703203129E-02 -2.159442436795E-01  7.599135847642E-02
C13  7.576780601660E-03 -1.298504780234E-01  1.768907562866E-01
C14 -7.576780601660E-03  1.298504780234E-01 -1.768907562866E-01
C15 -6.007292063233E-03 -2.418901664218E-01  2.639533151796E-01
C16  6.007292063233E-03  2.418901664218E-01 -2.639533151796E-01
C17  5.453555045556E-02 -1.532460048054E-01  3.620506545289E-01
C18 -5.453555045556E-02  1.532460048054E-01 -3.620506545289E-01
H19  1.782453532747E-01  1.219670647767E-01  4.592220992348E-01
H20 -1.782453532747E-01 -1.219670647767E-01 -4.592220992348E-01
H21  2.066880080556E-01  3.250429223205E-01  3.134650221514E-01
H22 -2.066880080556E-01 -3.250429223205E-01 -3.134650221514E-01
H23  1.625907398697E-01  3.478646948910E-01  1.257867225227E-01
H24 -1.625907398697E-01 -3.478646948910E-01 -1.257867225227E-01
H25  1.144440114332E-01  3.729300939464E-01 -6.207891481486E-02
H26 -1.144440114332E-01 -3.729300939464E-01  6.207891481486E-02
H27 -6.591109848882E-02 -3.989985964624E-01  2.502301462569E-01
H28  6.591109848882E-02  3.989985964624E-01 -2.502301462569E-01
H29  4.289678174768E-02 -2.400040256029E-01  4.271715547637E-01
H30 -4.289678174768E-02  2.400040256029E-01 -4.271715547637E-01
C31 -4.326003187998E-01 -4.153164069195E-01  3.798889640493E-01
C32  4.326003187998E-01  4.153164069195E-01 -3.798889640493E-01
C33 -4.941588771313E-01 -3.113361068847E-01  2.962715638091E-01
C34  4.941588771313E-01  3.113361068847E-01 -2.962715638091E-01
C35 -4.854830244838E-01 -4.050528997724E-01  1.936784854855E-01
C36  4.854830244838E-01  4.050528997724E-01 -1.936784854855E-01
C37  4.528095901960E-01 -3.028604242717E-01  1.069435475746E-01
C38 -4.528095901960E-01  3.028604242717E-01 -1.069435475746E-01
C39  4.624729368198E-01 -3.959050077502E-01  6.518405795517E-03
C40 -4.624729368198E-01  3.959050077502E-01 -6.518405795517E-03
C41  4.001282149961E-01 -2.936234402841E-01 -8.188300292736E-02
C42 -4.001282149961E-01  2.936234402841E-01  8.188300292736E-02
C43 -4.099089697215E-01  3.869341271999E-01  1.807823948830E-01
C44  4.099089697215E-01 -3.869341271999E-01 -1.807823948830E-01
C45 -3.463698624417E-01  2.844190948533E-01  2.712715594806E-01
C46  3.463698624417E-01 -2.844190948533E-01 -2.712715594806E-01
C47 -3.572449875909E-01  3.800540652466E-01  3.672862954225E-01
C48  3.572449875909E-01 -3.800540652466E-01 -3.672862954225E-01
H49 -4.410354822538E-01 -3.435690887608E-01  4.570496493188E-01
H50  4.410354822538E-01  3.435690887608E-01 -4.570496493188E-01
H51  4.480271876109E-01 -1.562786640143E-01  3.058025839875E-01
H52 -4.480271876109E-01  1.562786640143E-01 -3.058025839875E-01
H53  3.962253511869E-01 -1.470085058963E-01  1.166974043596E-01
H54 -3.962253511869E-01  1.470085058963E-01 -1.166974043596E-01
H55  3.440523818195E-01 -1.375288055667E-01 -7.208655385620E-02
H56 -3.440523818195E-01  1.375288055667E-01  7.208655385620E-02
H57 -2.892020107692E-01  1.290061539872E-01  2.617698580257E-01
H58  2.892020107692E-01 -1.290061539872E-01 -2.617698580257E-01
H59 -3.092914834268E-01  3.006510781050E-01  4.351610848461E-01
H60  3.092914834268E-01 -3.006510781050E-01 -4.351610848461E-01


#===END

data_OPT_STEP_62

_symmetry_space_group_name_H-M 'P 1'
_cell_length_a      7.87049536
_cell_length_b      6.30829715
_cell_length_c     13.17325897
_cell_angle_alpha   95.406676
_cell_angle_beta   99.734210
_cell_angle_gamma   90.167971

loop_
_atom_site_label
_atom_site_fract_x
_atom_site_fract_y
_atom_site_fract_z
C1  1.331517147427E-01  5.396819995451E-02  3.805868468882E-01
C2 -1.331517147427E-01 -5.396819995451E-02 -3.805868468882E-01
C3  1.489902823098E-01  1.666872455501E-01  2.994016835686E-01
C4 -1.489902823098E-01 -1.666872455501E-01 -2.994016835686E-01
C5  8.772637059591E-02  7.995103928555E-02  1.951617493243E-01
C6 -8.772637059591E-02 -7.995103928555E-02 -1.951617493243E-01
C7  1.023155150020E-01  1.909101559935E-01  1.108364384427E-01
C8 -1.023155150020E-01 -1.909101559935E-01 -1.108364384427E-01
C9  4.035727134318E-02  1.047916987992E-01  8.640060732832E-03
C10 -4.035727134318E-02 -1.047916987992E-01 -8.640060732832E-03
C11  5.437229876586E-02  2.159143484899E-01 -7.728826912752E-02
C12 -5.437229876586E-02 -2.159143484899E-01  7.728826912752E-02
C13  7.498349838643E-03 -1.298533962869E-01  1.778352341737E-01
C14 -7.498349838643E-03  1.298533962869E-01 -1.778352341737E-01
C15 -6.129827882196E-03 -2.418345566680E-01  2.656197491066E-01
C16  6.129827882196E-03  2.418345566680E-01 -2.656197491066E-01
C17  5.459057513786E-02 -1.532042880400E-01  3.633422988826E-01
C18 -5.459057513786E-02  1.532042880400E-01 -3.633422988826E-01
H19  1.794407217057E-01  1.215251978638E-01  4.591902986517E-01
H20 -1.794407217057E-01 -1.215251978638E-01 -4.591902986517E-01
H21  2.082704787007E-01  3.243057580594E-01  3.122519297120E-01
H22 -2.082704787007E-01 -3.243057580594E-01 -3.122519297120E-01
H23  1.626171371879E-01  3.480906189059E-01  1.239908242588E-01
H24 -1.626171371879E-01 -3.480906189059E-01 -1.239908242588E-01
H25  1.149824333688E-01  3.728643162089E-01 -6.426734424945E-02
H26 -1.149824333688E-01 -3.728643162089E-01  6.426734424945E-02
H27 -6.619878111877E-02 -3.989429182490E-01  2.528204070837E-01
H28  6.619878111877E-02  3.989429182490E-01 -2.528204070837E-01
H29  4.315508329833E-02 -2.401141109267E-01  4.290772452595E-01
H30 -4.315508329833E-02  2.401141109267E-01 -4.290772452595E-01
C31 -4.337443278599E-01 -4.170045384401E-01  3.795982044022E-01
C32  4.337443278599E-01  4.170045384401E-01 -3.795982044022E-01
C33 -4.956077515429E-01 -3.131107817516E-01  2.953941683685E-01
C34  4.956077515429E-01  3.131107817516E-01 -2.953941683685E-01
C35 -4.862688929804E-01 -4.060817298417E-01  1.932634823293E-01
C36  4.862688929804E-01  4.060817298417E-01 -1.932634823293E-01
C37  4.515668794403E-01 -3.040828363141E-01  1.059195480908E-01
C38 -4.515668794403E-01  3.040828363141E-01 -1.059195480908E-01
C39  4.617153015218E-01 -3.965125418556E-01  5.906056119318E-03
C40 -4.617153015218E-01  3.965125418556E-01 -5.906056119318E-03
C41  3.988112377929E-01 -2.945011173782E-01 -8.310755212864E-02
C42 -3.988112377929E-01  2.945011173782E-01  8.310755212864E-02
C43 -4.095540209956E-01  3.869003360201E-01  1.814550571111E-01
C44  4.095540209956E-01 -3.869003360201E-01 -1.814550571111E-01
C45 -3.458596368011E-01  2.844281649872E-01  2.723939802118E-01
C46  3.458596368011E-01 -2.844281649872E-01 -2.723939802118E-01
C47 -3.576273098953E-01  3.791908508405E-01  3.679268807665E-01
C48  3.576273098953E-01 -3.791908508405E-01 -3.679268807665E-01
H49 -4.421050747486E-01 -3.456017296338E-01  4.566285901211E-01
H50  4.421050747486E-01  3.456017296338E-01 -4.566285901211E-01
H51  4.459831736290E-01 -1.586068340426E-01  3.042246135109E-01
H52 -4.459831736290E-01  1.586068340426E-01 -3.042246135109E-01
H53  3.938916776165E-01 -1.490628186240E-01  1.147701840609E-01
H54 -3.938916776165E-01  1.490628186240E-01 -1.147701840609E-01
H55  3.419341527138E-01 -1.390938802192E-01 -7.412682604525E-02
H56 -3.419341527138E-01  1.390938802192E-01  7.412682604525E-02
H57 -2.878697644764E-01  1.297158012681E-01  2.636534762683E-01
H58  2.878697644764E-01 -1.297158012681E-01 -2.636534762683E-01
H59 -3.092825955518E-01  2.999662900801E-01  4.362562136727E-01
H60  3.092825955518E-01 -2.999662900801E-01 -4.362562136727E-01


#===END

data_OPT_STEP_63

_symmetry_space_group_name_H-M 'P 1'
_cell_length_a      7.85836784
_cell_length_b      6.29911044
_cell_length_c     13.18372254
_cell_angle_alpha   94.727386
_cell_angle_beta   99.385644
_cell_angle_gamma   90.398128

loop_
_atom_site_label
_atom_site_fract_x
_atom_site_fract_y
_atom_site_fract_z
C1  1.331680932540E-01  5.456861445845E-02  3.794935237514E-01
C2 -1.331680932540E-01 -5.456861445845E-02 -3.794935237514E-01
C3  1.487911885391E-01  1.673550379767E-01  2.976445285882E-01
C4 -1.487911885391E-01 -1.673550379767E-01 -2.976445285882E-01
C5  8.672812462763E-02  8.083424271763E-02  1.940558834401E-01
C6 -8.672812462763E-02 -8.083424271763E-02 -1.940558834401E-01
C7  1.007778505996E-01  1.920085562491E-01  1.090335099062E-01
C8 -1.007778505996E-01 -1.920085562491E-01 -1.090335099062E-01
C9  3.966249867131E-02  1.053119967297E-01  7.804791032028E-03
C10 -3.966249867131E-02 -1.053119967297E-01 -7.804791032028E-03
C11  5.353228104748E-02  2.165652949571E-01 -7.872966461535E-02
C12 -5.353228104748E-02 -2.165652949571E-01  7.872966461535E-02
C13  7.444374183258E-03 -1.297681881676E-01  1.783644038019E-01
C14 -7.444374183258E-03  1.297681881676E-01 -1.783644038019E-01
C15 -5.489362667672E-03 -2.421520669751E-01  2.668536225121E-01
C16  5.489362667672E-03  2.421520669751E-01 -2.668536225121E-01
C17  5.501525759806E-02 -1.530808425955E-01  3.638115946473E-01
C18 -5.501525759806E-02  1.530808425955E-01 -3.638115946473E-01
H19  1.800039808918E-01  1.218415204532E-01  4.575728977148E-01
H20 -1.800039808918E-01 -1.218415204532E-01 -4.575728977148E-01
H21  2.079281291959E-01  3.252799222993E-01  3.093523232219E-01
H22 -2.079281291959E-01 -3.252799222993E-01 -3.093523232219E-01
H23  1.596782488909E-01  3.502172144583E-01  1.207780415885E-01
H24 -1.596782488909E-01 -3.502172144583E-01 -1.207780415885E-01
H25  1.131179657704E-01  3.743421756625E-01 -6.707861136435E-02
H26 -1.131179657704E-01 -3.743421756625E-01  6.707861136435E-02
H27 -6.474818214355E-02 -3.999348802598E-01  2.552641882277E-01
H28  6.474818214355E-02  3.999348802598E-01 -2.552641882277E-01
H29  4.350910065060E-02 -2.399283809793E-01  4.300926810605E-01
H30 -4.350910065060E-02  2.399283809793E-01 -4.300926810605E-01
C31 -4.316276028164E-01 -4.156995819096E-01  3.790083661087E-01
C32  4.316276028164E-01  4.156995819096E-01 -3.790083661087E-01
C33 -4.940227268348E-01 -3.121155183060E-01  2.943742281132E-01
C34  4.940227268348E-01  3.121155183060E-01 -2.943742281132E-01
C35 -4.855944168227E-01 -4.057220306223E-01  1.926852642151E-01
C36  4.855944168227E-01  4.057220306223E-01 -1.926852642151E-01
C37  4.525735021288E-01 -3.033934888229E-01  1.051424229844E-01
C38 -4.525735021288E-01  3.033934888229E-01 -1.051424229844E-01
C39  4.620485756315E-01 -3.962264729506E-01  5.516310462407E-03
C40 -4.620485756315E-01  3.962264729506E-01 -5.516310462407E-03
C41  4.001497690390E-01 -2.935667850221E-01 -8.356466627470E-02
C42 -4.001497690390E-01  2.935667850221E-01  8.356466627470E-02
C43 -4.100049945148E-01  3.865051980254E-01  1.815503398591E-01
C44  4.100049945148E-01 -3.865051980254E-01 -1.815503398591E-01
C45 -3.466072411216E-01  2.838617354468E-01  2.726711463055E-01
C46  3.466072411216E-01 -2.838617354468E-01 -2.726711463055E-01
C47 -3.570186245041E-01  3.795343045308E-01  3.679454139960E-01
C48  3.570186245041E-01 -3.795343045308E-01 -3.679454139960E-01
H49 -4.388998121746E-01 -3.433732848094E-01  4.557862624976E-01
H50  4.388998121746E-01  3.433732848094E-01 -4.557862624976E-01
H51  4.490585257930E-01 -1.566171326766E-01  3.028429280743E-01
H52 -4.490585257930E-01  1.566171326766E-01 -3.028429280743E-01
H53  3.956640238713E-01 -1.477971319155E-01  1.134767843789E-01
H54 -3.956640238713E-01  1.477971319155E-01 -1.134767843789E-01
H55  3.430702964325E-01 -1.380389967933E-01 -7.534000689714E-02
H56 -3.430702964325E-01  1.380389967933E-01  7.534000689714E-02
H57 -2.895394640641E-01  1.284147312906E-01  2.644438589890E-01
H58  2.895394640641E-01 -1.284147312906E-01 -2.644438589890E-01
H59 -3.083032753685E-01  3.005868618184E-01  4.366051769790E-01
H60  3.083032753685E-01 -3.005868618184E-01 -4.366051769790E-01


#===END

data_OPT_STEP_64

_symmetry_space_group_name_H-M 'P 1'
_cell_length_a      7.81016824
_cell_length_b      6.32817795
_cell_length_c     13.17476749
_cell_angle_alpha   94.598578
_cell_angle_beta   98.613657
_cell_angle_gamma   90.505453

loop_
_atom_site_label
_atom_site_fract_x
_atom_site_fract_y
_atom_site_fract_z
C1  1.340489445916E-01  5.446492730226E-02  3.784741518542E-01
C2 -1.340489445916E-01 -5.446492730226E-02 -3.784741518542E-01
C3  1.494778673467E-01  1.669460129418E-01  2.963463795604E-01
C4 -1.494778673467E-01 -1.669460129418E-01 -2.963463795604E-01
C5  8.745623390661E-02  8.061547163308E-02  1.933825470053E-01
C6 -8.745623390661E-02 -8.061547163308E-02 -1.933825470053E-01
C7  1.013983402549E-01  1.912963750944E-01  1.080747781448E-01
C8 -1.013983402549E-01 -1.912963750944E-01 -1.080747781448E-01
C9  3.975645754775E-02  1.049317222877E-01  7.361321938827E-03
C10 -3.975645754775E-02 -1.049317222877E-01 -7.361321938827E-03
C11  5.324537926956E-02  2.157976173850E-01 -7.951382032641E-02
C12 -5.324537926956E-02 -2.157976173850E-01  7.951382032641E-02
C13  8.121973069011E-03 -1.293119904887E-01  1.785764860968E-01
C14 -8.121973069011E-03  1.293119904887E-01 -1.785764860968E-01
C15 -4.604078557598E-03 -2.413591196209E-01  2.673078567866E-01
C16  4.604078557598E-03  2.413591196209E-01 -2.673078567866E-01
C17  5.622415958622E-02 -1.527624392662E-01  3.636995379085E-01
C18 -5.622415958622E-02  1.527624392662E-01 -3.636995379085E-01
H19  1.809589698474E-01  1.215627690254E-01  4.561278394170E-01
H20 -1.809589698474E-01 -1.215627690254E-01 -4.561278394170E-01
H21  2.083806953710E-01  3.245126870142E-01  3.074862832088E-01
H22 -2.083806953710E-01 -3.245126870142E-01 -3.074862832088E-01
H23  1.603957234234E-01  3.489372726601E-01  1.191759168700E-01
H24 -1.603957234234E-01 -3.489372726601E-01 -1.191759168700E-01
H25  1.129698811287E-01  3.729953504744E-01 -6.855769231910E-02
H26 -1.129698811287E-01 -3.729953504744E-01  6.855769231910E-02
H27 -6.398403690551E-02 -3.985577790564E-01  2.563296201560E-01
H28  6.398403690551E-02  3.985577790564E-01 -2.563296201560E-01
H29  4.478117096521E-02 -2.392846061292E-01  4.301642013982E-01
H30 -4.478117096521E-02  2.392846061292E-01 -4.301642013982E-01
C31 -4.305013931023E-01 -4.157154863445E-01  3.786012950058E-01
C32  4.305013931023E-01  4.157154863445E-01 -3.786012950058E-01
C33 -4.924240998023E-01 -3.121802067938E-01  2.944966054345E-01
C34  4.924240998023E-01  3.121802067938E-01 -2.944966054345E-01
C35 -4.843187308675E-01 -4.055372197801E-01  1.927490185463E-01
C36  4.843187308675E-01  4.055372197801E-01 -1.927490185463E-01
C37  4.540401286165E-01 -3.034113411812E-01  1.056694370539E-01
C38 -4.540401286165E-01  3.034113411812E-01 -1.056694370539E-01
C39  4.626394837624E-01 -3.963029089616E-01  5.867706991188E-03
C40 -4.626394837624E-01  3.963029089616E-01 -5.867706991188E-03
C41  4.007773631989E-01 -2.939380393996E-01 -8.278303014009E-02
C42 -4.007773631989E-01  2.939380393996E-01  8.278303014009E-02
C43 -4.096287992015E-01  3.870092451512E-01  1.810010079747E-01
C44  4.096287992015E-01 -3.870092451512E-01 -1.810010079747E-01
C45 -3.462056965679E-01  2.847053503827E-01  2.717311351955E-01
C46  3.462056965679E-01 -2.847053503827E-01 -2.717311351955E-01
C47 -3.563448717928E-01  3.800587223443E-01  3.670298987214E-01
C48  3.563448717928E-01 -3.800587223443E-01 -3.670298987214E-01
H49 -4.380201075146E-01 -3.437980039275E-01  4.553183551866E-01
H50  4.380201075146E-01  3.437980039275E-01 -4.553183551866E-01
H51  4.511599124497E-01 -1.570372263047E-01  3.033859202939E-01
H52 -4.511599124497E-01  1.570372263047E-01 -3.033859202939E-01
H53  3.980074274881E-01 -1.479680171330E-01  1.145417824653E-01
H54 -3.980074274881E-01  1.479680171330E-01 -1.145417824653E-01
H55  3.442757291861E-01 -1.387172412731E-01 -7.410711659412E-02
H56 -3.442757291861E-01  1.387172412731E-01  7.410711659412E-02
H57 -2.895844655331E-01  1.296559216566E-01  2.630894648170E-01
H58  2.895844655331E-01 -1.296559216566E-01 -2.630894648170E-01
H59 -3.078125368182E-01  3.012837171882E-01  4.353044168410E-01
H60  3.078125368182E-01 -3.012837171882E-01 -4.353044168410E-01


#===END

data_OPT_STEP_65

_symmetry_space_group_name_H-M 'P 1'
_cell_length_a      7.84540535
_cell_length_b      6.30745252
_cell_length_c     13.18141682
_cell_angle_alpha   94.719009
_cell_angle_beta   99.232233
_cell_angle_gamma   90.395512

loop_
_atom_site_label
_atom_site_fract_x
_atom_site_fract_y
_atom_site_fract_z
C1  1.335297296974E-01  5.426405597274E-02  3.792037288389E-01
C2 -1.335297296974E-01 -5.426405597274E-02 -3.792037288389E-01
C3  1.491555007859E-01  1.670143712719E-01  2.973497281939E-01
C4 -1.491555007859E-01 -1.670143712719E-01 -2.973497281939E-01
C5  8.714321894063E-02  8.061354959197E-02  1.939244091899E-01
C6 -8.714321894063E-02 -8.061354959197E-02 -1.939244091899E-01
C7  1.012670478474E-01  1.916234157956E-01  1.088954544046E-01
C8 -1.012670478474E-01 -1.916234157956E-01 -1.088954544046E-01
C9  3.978823442665E-02  1.051496379460E-01  7.744101340890E-03
C10 -3.978823442665E-02 -1.051496379460E-01 -7.744101340890E-03
C11  5.351107999692E-02  2.163316154983E-01 -7.884220878740E-02
C12 -5.351107999692E-02 -2.163316154983E-01  7.884220878740E-02
C13  7.709821931241E-03 -1.297305184995E-01  1.783597703856E-01
C14 -7.709821931241E-03  1.297305184995E-01 -1.783597703856E-01
C15 -5.221024108710E-03 -2.420733870262E-01  2.668350251018E-01
C16  5.221024108710E-03  2.420733870262E-01 -2.668350251018E-01
C17  5.545924235367E-02 -1.532974185578E-01  3.636745512874E-01
C18 -5.545924235367E-02  1.532974185578E-01 -3.636745512874E-01
H19  1.804140113479E-01  1.214380851922E-01  4.571928097799E-01
H20 -1.804140113479E-01 -1.214380851922E-01 -4.571928097799E-01
H21  2.082343430565E-01  3.248536442535E-01  3.089978955405E-01
H22 -2.082343430565E-01 -3.248536442535E-01 -3.089978955405E-01
H23  1.603471892613E-01  3.495809978765E-01  1.205452395588E-01
H24 -1.603471892613E-01 -3.495809978765E-01 -1.205452395588E-01
H25  1.132788815635E-01  3.738649281372E-01 -6.730803497199E-02
H26 -1.132788815635E-01 -3.738649281372E-01  6.730803497199E-02
H27 -6.465525708253E-02 -3.996033771959E-01  2.553041164615E-01
H28  6.465525708253E-02  3.996033771959E-01 -2.553041164615E-01
H29  4.390239299126E-02 -2.400726824746E-01  4.299382316425E-01
H30 -4.390239299126E-02  2.400726824746E-01 -4.299382316425E-01
C31 -4.311604175804E-01 -4.156864434864E-01  3.789066857233E-01
C32  4.311604175804E-01  4.156864434864E-01 -3.789066857233E-01
C33 -4.932840030178E-01 -3.119862100513E-01  2.944724267695E-01
C34  4.932840030178E-01  3.119862100513E-01 -2.944724267695E-01
C35 -4.849610336043E-01 -4.055336229088E-01  1.927636223635E-01
C36  4.849610336043E-01  4.055336229088E-01 -1.927636223635E-01
C37  4.533080980250E-01 -3.031908131303E-01  1.053751440631E-01
C38 -4.533080980250E-01  3.031908131303E-01 -1.053751440631E-01
C39  4.623564659094E-01 -3.961401289130E-01  5.658130565270E-03
C40 -4.623564659094E-01  3.961401289130E-01 -5.658130565270E-03
C41  4.004698878848E-01 -2.935199835005E-01 -8.329379156455E-02
C42 -4.004698878848E-01  2.935199835005E-01  8.329379156455E-02
C43 -4.098009440988E-01  3.866366287268E-01  1.814100608903E-01
C44  4.098009440988E-01 -3.866366287268E-01 -1.814100608903E-01
C45 -3.463742081146E-01  2.840542498104E-01  2.724350281370E-01
C46  3.463742081146E-01 -2.840542498104E-01 -2.724350281370E-01
C47 -3.567185535534E-01  3.796180169983E-01  3.677016949245E-01
C48  3.567185535534E-01 -3.796180169983E-01 -3.677016949245E-01
H49 -4.386387578205E-01 -3.435257551041E-01  4.556131186226E-01
H50  4.386387578205E-01  3.435257551041E-01 -4.556131186226E-01
H51  4.500023222582E-01 -1.565216137926E-01  3.030695495440E-01
H52 -4.500023222582E-01  1.565216137926E-01 -3.030695495440E-01
H53  3.968365425303E-01 -1.475008909995E-01  1.139205509994E-01
H54 -3.968365425303E-01  1.475008909995E-01 -1.139205509994E-01
H55  3.436725806406E-01 -1.379765070768E-01 -7.490223996587E-02
H56 -3.436725806406E-01  1.379765070768E-01  7.490223996587E-02
H57 -2.895071345959E-01  1.286496114810E-01  2.640752008304E-01
H58  2.895071345959E-01 -1.286496114810E-01 -2.640752008304E-01
H59 -3.081566737113E-01  3.006339272552E-01  4.362196713247E-01
H60  3.081566737113E-01 -3.006339272552E-01 -4.362196713247E-01


#===END

data_OPT_STEP_66

_symmetry_space_group_name_H-M 'P 1'
_cell_length_a      7.85602678
_cell_length_b      6.30081983
_cell_length_c     13.18244818
_cell_angle_alpha   94.726285
_cell_angle_beta   99.361655
_cell_angle_gamma   90.390776

loop_
_atom_site_label
_atom_site_fract_x
_atom_site_fract_y
_atom_site_fract_z
C1  1.332786234617E-01  5.443643161467E-02  3.794204488609E-01
C2 -1.332786234617E-01 -5.443643161467E-02 -3.794204488609E-01
C3  1.489286254702E-01  1.672401959016E-01  2.975806512695E-01
C4 -1.489286254702E-01 -1.672401959016E-01 -2.975806512695E-01
C5  8.691829375709E-02  8.075784701186E-02  1.940452189188E-01
C6 -8.691829375709E-02 -8.075784701186E-02 -1.940452189188E-01
C7  1.010374936891E-01  1.918722152296E-01  1.090321973109E-01
C8 -1.010374936891E-01 -1.918722152296E-01 -1.090321973109E-01
C9  3.973322942426E-02  1.052587127953E-01  7.800126451545E-03
C10 -3.973322942426E-02 -1.052587127953E-01 -7.800126451545E-03
C11  5.353876854246E-02  2.165042981843E-01 -7.875484583114E-02
C12 -5.353876854246E-02 -2.165042981843E-01  7.875484583114E-02
C13  7.548394888161E-03 -1.297740163385E-01  1.783676570987E-01
C14 -7.548394888161E-03  1.297740163385E-01 -1.783676570987E-01
C15 -5.419094892498E-03 -2.421683899117E-01  2.668372835599E-01
C16  5.419094892498E-03  2.421683899117E-01 -2.668372835599E-01
C17  5.515604745104E-02 -1.532326437952E-01  3.637692572026E-01
C18 -5.515604745104E-02  1.532326437952E-01 -3.637692572026E-01
H19  1.801346227405E-01  1.216766972526E-01  4.574802163364E-01
H20 -1.801346227405E-01 -1.216766972526E-01 -4.574802163364E-01
H21  2.080617514334E-01  3.251590053699E-01  3.092982388963E-01
H22 -2.080617514334E-01 -3.251590053699E-01 -3.092982388963E-01
H23  1.600497537554E-01  3.499889973327E-01  1.207633064000E-01
H24 -1.600497537554E-01 -3.499889973327E-01 -1.207633064000E-01
H25  1.132256670718E-01  3.742011308065E-01 -6.712800370677E-02
H26 -1.132256670718E-01 -3.742011308065E-01  6.712800370677E-02
H27 -6.479303478048E-02 -3.998547153844E-01  2.552359860309E-01
H28  6.479303478048E-02  3.998547153844E-01 -2.552359860309E-01
H29  4.360796496202E-02 -2.400719132069E-01  4.300311043504E-01
H30 -4.360796496202E-02  2.400719132069E-01 -4.300311043504E-01
C31 -4.314560752890E-01 -4.156998991127E-01  3.789921820579E-01
C32  4.314560752890E-01  4.156998991127E-01 -3.789921820579E-01
C33 -4.937361658334E-01 -3.120360690396E-01  2.944266693663E-01
C34  4.937361658334E-01  3.120360690396E-01 -2.944266693663E-01
C35 -4.853387069209E-01 -4.056268470668E-01  1.927320009167E-01
C36  4.853387069209E-01  4.056268470668E-01 -1.927320009167E-01
C37  4.528689474894E-01 -3.032717748602E-01  1.052299080336E-01
C38 -4.528689474894E-01  3.032717748602E-01 -1.052299080336E-01
C39  4.621800870875E-01 -3.961629154557E-01  5.567126480685E-03
C40 -4.621800870875E-01  3.961629154557E-01 -5.567126480685E-03
C41  4.002859658996E-01 -2.934987867373E-01 -8.348670480663E-02
C42 -4.002859658996E-01  2.934987867373E-01  8.348670480663E-02
C43 -4.099121184734E-01  3.865386151291E-01  1.815335568018E-01
C44  4.099121184734E-01 -3.865386151291E-01 -1.815335568018E-01
C45 -3.464869889609E-01  2.839006045915E-01  2.726472918721E-01
C46  3.464869889609E-01 -2.839006045915E-01 -2.726472918721E-01
C47 -3.568912647193E-01  3.795276812286E-01  3.679077978763E-01
C48  3.568912647193E-01 -3.795276812286E-01 -3.679077978763E-01
H49 -4.388184068057E-01 -3.434471182280E-01  4.557283008813E-01
H50  4.388184068057E-01  3.434471182280E-01 -4.557283008813E-01
H51  4.494041200850E-01 -1.565325067976E-01  3.029212845161E-01
H52 -4.494041200850E-01  1.565325067976E-01 -3.029212845161E-01
H53  3.961297279502E-01 -1.476087029294E-01  1.136335125584E-01
H54 -3.961297279502E-01  1.476087029294E-01 -1.136335125584E-01
H55  3.433194716451E-01 -1.379307384418E-01 -7.520952992242E-02
H56 -3.433194716451E-01  1.379307384418E-01  7.520952992242E-02
H57 -2.895015006531E-01  1.284383105443E-01  2.643864691264E-01
H58  2.895015006531E-01 -1.284383105443E-01 -2.643864691264E-01
H59 -3.082701480794E-01  3.005287128509E-01  4.365192587815E-01
H60  3.082701480794E-01 -3.005287128509E-01 -4.365192587815E-01


#===END

data_OPT_STEP_67

_symmetry_space_group_name_H-M 'P 1'
_cell_length_a      7.85586738
_cell_length_b      6.30066964
_cell_length_c     13.18013466
_cell_angle_alpha   94.714632
_cell_angle_beta   99.305756
_cell_angle_gamma   90.393683

loop_
_atom_site_label
_atom_site_fract_x
_atom_site_fract_y
_atom_site_fract_z
C1  1.338036147927E-01  5.420581061602E-02  3.793947707024E-01
C2 -1.338036147927E-01 -5.420581061602E-02 -3.793947707024E-01
C3  1.494116082202E-01  1.671455917000E-01  2.974775171687E-01
C4 -1.494116082202E-01 -1.671455917000E-01 -2.974775171687E-01
C5  8.750705262935E-02  8.068668123274E-02  1.940867602194E-01
C6 -8.750705262935E-02 -8.068668123274E-02 -1.940867602194E-01
C7  1.017645253422E-01  1.916729541108E-01  1.090146950667E-01
C8 -1.017645253422E-01 -1.916729541108E-01 -1.090146950667E-01
C9  3.996002853576E-02  1.051372441692E-01  7.761371446951E-03
C10 -3.996002853576E-02 -1.051372441692E-01 -7.761371446951E-03
C11  5.365024910416E-02  2.163224314941E-01 -7.891960577635E-02
C12 -5.365024910416E-02 -2.163224314941E-01  7.891960577635E-02
C13  7.854345408627E-03 -1.297269114992E-01  1.785102924848E-01
C14 -7.854345408627E-03  1.297269114992E-01 -1.785102924848E-01
C15 -5.206858593089E-03 -2.421380409855E-01  2.670292742474E-01
C16  5.206858593089E-03  2.421380409855E-01 -2.670292742474E-01
C17  5.563023716026E-02 -1.535043636199E-01  3.638982289626E-01
C18 -5.563023716026E-02  1.535043636199E-01 -3.638982289626E-01
H19  1.807065748872E-01  1.214272516306E-01  4.573894437308E-01
H20 -1.807065748872E-01 -1.214272516306E-01 -4.573894437308E-01
H21  2.085694130110E-01  3.251138126656E-01  3.091601499898E-01
H22 -2.085694130110E-01 -3.251138126656E-01 -3.091601499898E-01
H23  1.612347910526E-01  3.495281105087E-01  1.206663918030E-01
H24 -1.612347910526E-01 -3.495281105087E-01 -1.206663918030E-01
H25  1.136212168916E-01  3.738724395725E-01 -6.739150469758E-02
H26 -1.136212168916E-01 -3.738724395725E-01  6.739150469758E-02
H27 -6.507806062074E-02 -3.995366322233E-01  2.554370300526E-01
H28  6.507806062074E-02  3.995366322233E-01 -2.554370300526E-01
H29  4.414844095118E-02 -2.404091551375E-01  4.301980264645E-01
H30 -4.414844095118E-02  2.404091551375E-01 -4.301980264645E-01
C31 -4.311452570821E-01 -4.156992935939E-01  3.789625503534E-01
C32  4.311452570821E-01  4.156992935939E-01 -3.789625503534E-01
C33 -4.935970210555E-01 -3.121247062352E-01  2.944424124747E-01
C34  4.935970210555E-01  3.121247062352E-01 -2.944424124747E-01
C35 -4.853322455801E-01 -4.057451006687E-01  1.927178371691E-01
C36  4.853322455801E-01  4.057451006687E-01 -1.927178371691E-01
C37  4.527657509653E-01 -3.034519868406E-01  1.052191821005E-01
C38 -4.527657509653E-01  3.034519868406E-01 -1.052191821005E-01
C39  4.622054379091E-01 -3.961628603148E-01  5.599730897770E-03
C40 -4.622054379091E-01  3.961628603148E-01 -5.599730897770E-03
C41  4.001614449555E-01 -2.935732684206E-01 -8.348332284676E-02
C42 -4.001614449555E-01  2.935732684206E-01  8.348332284676E-02
C43 -4.097918122634E-01  3.865261909567E-01  1.815361337863E-01
C44  4.097918122634E-01 -3.865261909567E-01 -1.815361337863E-01
C45 -3.461814702850E-01  2.839648667009E-01  2.726999420919E-01
C46  3.461814702850E-01 -2.839648667009E-01 -2.726999420919E-01
C47 -3.564903334863E-01  3.795756795926E-01  3.679366067940E-01
C48  3.564903334863E-01 -3.795756795926E-01 -3.679366067940E-01
H49 -4.383685467353E-01 -3.433968575156E-01  4.556466064601E-01
H50  4.383685467353E-01  3.433968575156E-01 -4.556466064601E-01
H51  4.494277527629E-01 -1.567421240959E-01  3.029010173532E-01
H52 -4.494277527629E-01  1.567421240959E-01 -3.029010173532E-01
H53  3.959140689789E-01 -1.478887565109E-01  1.136281104817E-01
H54 -3.959140689789E-01  1.478887565109E-01 -1.136281104817E-01
H55  3.432531758997E-01 -1.380148609326E-01 -7.512759645402E-02
H56 -3.432531758997E-01  1.380148609326E-01  7.512759645402E-02
H57 -2.892614326662E-01  1.285372750826E-01  2.644125813882E-01
H58  2.892614326662E-01 -1.285372750826E-01 -2.644125813882E-01
H59 -3.079394078639E-01  3.005540350782E-01  4.364892158152E-01
H60  3.079394078639E-01 -3.005540350782E-01 -4.364892158152E-01


#===END

data_OPT_STEP_68

_symmetry_space_group_name_H-M 'P 1'
_cell_length_a      7.85599376
_cell_length_b      6.30084806
_cell_length_c     13.18197019
_cell_angle_alpha   94.728511
_cell_angle_beta   99.353896
_cell_angle_gamma   90.388608

loop_
_atom_site_label
_atom_site_fract_x
_atom_site_fract_y
_atom_site_fract_z
C1  1.333623471111E-01  5.437912276549E-02  3.794118107151E-01
C2 -1.333623471111E-01 -5.437912276549E-02 -3.794118107151E-01
C3  1.489940026172E-01  1.672655206596E-01  2.975493493410E-01
C4 -1.489940026172E-01 -1.672655206596E-01 -2.975493493410E-01
C5  8.709470722973E-02  8.076981223371E-02  1.940790612426E-01
C6 -8.709470722973E-02 -8.076981223371E-02 -1.940790612426E-01
C7  1.012478737817E-01  1.918574056305E-01  1.090507618049E-01
C8 -1.012478737817E-01 -1.918574056305E-01 -1.090507618049E-01
C9  3.979565733405E-02  1.052307066173E-01  7.797294548538E-03
C10 -3.979565733405E-02 -1.052307066173E-01 -7.797294548538E-03
C11  5.355254195109E-02  2.164601192812E-01 -7.880168307136E-02
C12 -5.355254195109E-02 -2.164601192812E-01  7.880168307136E-02
C13  7.658046669148E-03 -1.297540453029E-01  1.784167379029E-01
C14 -7.658046669148E-03  1.297540453029E-01 -1.784167379029E-01
C15 -5.384725970131E-03 -2.421508242336E-01  2.668946006328E-01
C16  5.384725970131E-03  2.421508242336E-01 -2.668946006328E-01
C17  5.524797960402E-02 -1.533341439828E-01  3.638031231928E-01
C18 -5.524797960402E-02  1.533341439828E-01 -3.638031231928E-01
H19  1.802184768084E-01  1.216112102711E-01  4.574481121780E-01
H20 -1.802184768084E-01 -1.216112102711E-01 -4.574481121780E-01
H21  2.081364492197E-01  3.252188161004E-01  3.092719088971E-01
H22 -2.081364492197E-01 -3.252188161004E-01 -3.092719088971E-01
H23  1.604307755847E-01  3.498793509536E-01  1.207640374749E-01
H24 -1.604307755847E-01 -3.498793509536E-01 -1.207640374749E-01
H25  1.133182812866E-01  3.741253955194E-01 -6.719394847696E-02
H26 -1.133182812866E-01 -3.741253955194E-01  6.719394847696E-02
H27 -6.496151071986E-02 -3.997281433686E-01  2.552682074460E-01
H28  6.496151071986E-02  3.997281433686E-01 -2.552682074460E-01
H29  4.372050460579E-02 -2.402061545193E-01  4.300681284419E-01
H30 -4.372050460579E-02  2.402061545193E-01 -4.300681284419E-01
C31 -4.313825106304E-01 -4.157008653221E-01  3.789659636551E-01
C32  4.313825106304E-01  4.157008653221E-01 -3.789659636551E-01
C33 -4.936926885221E-01 -3.120520827979E-01  2.944305839423E-01
C34  4.936926885221E-01  3.120520827979E-01 -2.944305839423E-01
C35 -4.853574739521E-01 -4.056614620054E-01  1.927213249572E-01
C36  4.853574739521E-01  4.056614620054E-01 -1.927213249572E-01
C37  4.528306308907E-01 -3.033344257106E-01  1.052162882481E-01
C38 -4.528306308907E-01  3.033344257106E-01 -1.052162882481E-01
C39  4.622074912053E-01 -3.961528292505E-01  5.579762666745E-03
C40 -4.622074912053E-01  3.961528292505E-01 -5.579762666745E-03
C41  4.002453435689E-01 -2.935404527681E-01 -8.350056933044E-02
C42 -4.002453435689E-01  2.935404527681E-01  8.350056933044E-02
C43 -4.098933938276E-01  3.865428807126E-01  1.815409144789E-01
C44  4.098933938276E-01 -3.865428807126E-01 -1.815409144789E-01
C45 -3.464151727936E-01  2.839271299058E-01  2.726820908892E-01
C46  3.464151727936E-01 -2.839271299058E-01 -2.726820908892E-01
C47 -3.567959336657E-01  3.795356281473E-01  3.679185357138E-01
C48  3.567959336657E-01 -3.795356281473E-01 -3.679185357138E-01
H49 -4.386511081438E-01 -3.434268922632E-01  4.556778502208E-01
H50  4.386511081438E-01  3.434268922632E-01 -4.556778502208E-01
H51  4.494149514120E-01 -1.565959757380E-01  3.029039087904E-01
H52 -4.494149514120E-01  1.565959757380E-01 -3.029039087904E-01
H53  3.960675583426E-01 -1.476999084309E-01  1.136172197243E-01
H54 -3.960675583426E-01  1.476999084309E-01 -1.136172197243E-01
H55  3.433372099951E-01 -1.379591893458E-01 -7.518926602198E-02
H56 -3.433372099951E-01  1.379591893458E-01  7.518926602198E-02
H57 -2.894750630689E-01  1.284781625668E-01  2.644109272474E-01
H58  2.894750630689E-01 -1.284781625668E-01 -2.644109272474E-01
H59 -3.082454054520E-01  3.005036374785E-01  4.364983965316E-01
H60  3.082454054520E-01 -3.005036374785E-01 -4.364983965316E-01


#===END

data_OPT_STEP_69

_symmetry_space_group_name_H-M 'P 1'
_cell_length_a      7.85535512
_cell_length_b      6.30113024
_cell_length_c     13.18096505
_cell_angle_alpha   94.725770
_cell_angle_beta   99.331515
_cell_angle_gamma   90.375173

loop_
_atom_site_label
_atom_site_fract_x
_atom_site_fract_y
_atom_site_fract_z
C1  1.335524923674E-01  5.429994784876E-02  3.793816089044E-01
C2 -1.335524923674E-01 -5.429994784876E-02 -3.793816089044E-01
C3  1.492712264283E-01  1.671542073964E-01  2.975071852198E-01
C4 -1.492712264283E-01 -1.671542073964E-01 -2.975071852198E-01
C5  8.735708052923E-02  8.064727402836E-02  1.940837715089E-01
C6 -8.735708052923E-02 -8.064727402836E-02 -1.940837715089E-01
C7  1.015797971380E-01  1.916681594907E-01  1.090374011563E-01
C8 -1.015797971380E-01 -1.916681594907E-01 -1.090374011563E-01
C9  3.992475697445E-02  1.051379847155E-01  7.791287002696E-03
C10 -3.992475697445E-02 -1.051379847155E-01 -7.791287002696E-03
C11  5.369142891941E-02  2.163362389607E-01 -7.883973581470E-02
C12 -5.369142891941E-02 -2.163362389607E-01  7.883973581470E-02
C13  7.702329895538E-03 -1.297362459053E-01  1.784438540563E-01
C14 -7.702329895538E-03  1.297362459053E-01 -1.784438540563E-01
C15 -5.505083560547E-03 -2.420493237502E-01  2.669283090108E-01
C16  5.505083560547E-03  2.420493237502E-01 -2.669283090108E-01
C17  5.528736385018E-02 -1.533105880603E-01  3.638221051029E-01
C18 -5.528736385018E-02  1.533105880603E-01 -3.638221051029E-01
H19  1.804220896678E-01  1.215317232711E-01  4.573824471895E-01
H20 -1.804220896678E-01 -1.215317232711E-01 -4.573824471895E-01
H21  2.084900824684E-01  3.250733019902E-01  3.092029406065E-01
H22 -2.084900824684E-01 -3.250733019902E-01 -3.092029406065E-01
H23  1.610448414831E-01  3.495097475487E-01  1.207254124030E-01
H24 -1.610448414831E-01 -3.495097475487E-01 -1.207254124030E-01
H25  1.136342076686E-01  3.738792635555E-01 -6.724759665797E-02
H26 -1.136342076686E-01 -3.738792635555E-01  6.724759665797E-02
H27 -6.532452691598E-02 -3.994795758404E-01  2.553055952411E-01
H28  6.532452691598E-02  3.994795758404E-01 -2.553055952411E-01
H29  4.373000652611E-02 -2.401373538447E-01  4.301032659154E-01
H30 -4.373000652611E-02  2.401373538447E-01 -4.301032659154E-01
C31 -4.312360999252E-01 -4.156332619434E-01  3.789455189504E-01
C32  4.312360999252E-01  4.156332619434E-01 -3.789455189504E-01
C33 -4.935459463120E-01 -3.119789696610E-01  2.944529490541E-01
C34  4.935459463120E-01  3.119789696610E-01 -2.944529490541E-01
C35 -4.852536288299E-01 -4.056081275643E-01  1.927436109333E-01
C36  4.852536288299E-01  4.056081275643E-01 -1.927436109333E-01
C37  4.529573988201E-01 -3.032693569427E-01  1.052563943034E-01
C38 -4.529573988201E-01  3.032693569427E-01 -1.052563943034E-01
C39  4.622753047090E-01 -3.961115836868E-01  5.604026417304E-03
C40 -4.622753047090E-01  3.961115836868E-01 -5.604026417304E-03
C41  4.002630023424E-01 -2.935209740402E-01 -8.349126312646E-02
C42 -4.002630023424E-01  2.935209740402E-01  8.349126312646E-02
C43 -4.098608758661E-01  3.865475691122E-01  1.815471595697E-01
C44  4.098608758661E-01 -3.865475691122E-01 -1.815471595697E-01
C45 -3.463792353726E-01  2.839157290628E-01  2.726996028613E-01
C46  3.463792353726E-01 -2.839157290628E-01 -2.726996028613E-01
C47 -3.566707754060E-01  3.795718809886E-01  3.679236730983E-01
C48  3.566707754060E-01 -3.795718809886E-01 -3.679236730983E-01
H49 -4.384271741805E-01 -3.433086758890E-01  4.556203660638E-01
H50  4.384271741805E-01  3.433086758890E-01 -4.556203660638E-01
H51  4.495520907383E-01 -1.565404383046E-01  3.029121580421E-01
H52 -4.495520907383E-01  1.565404383046E-01 -3.029121580421E-01
H53  3.962558886110E-01 -1.476075586071E-01  1.136877212064E-01
H54 -3.962558886110E-01  1.476075586071E-01 -1.136877212064E-01
H55  3.434805173497E-01 -1.378768237827E-01 -7.512250395509E-02
H56 -3.434805173497E-01  1.378768237827E-01  7.512250395509E-02
H57 -2.894803124405E-01  1.284562667830E-01  2.644199159257E-01
H58  2.894803124405E-01 -1.284562667830E-01 -2.644199159257E-01
H59 -3.081373720675E-01  3.005312449129E-01  4.364810902397E-01
H60  3.081373720675E-01 -3.005312449129E-01 -4.364810902397E-01


#===END

data_OPT_STEP_70

_symmetry_space_group_name_H-M 'P 1'
_cell_length_a      7.85589309
_cell_length_b      6.30092203
_cell_length_c     13.18164255
_cell_angle_alpha   94.729162
_cell_angle_beta   99.350412
_cell_angle_gamma   90.385234

loop_
_atom_site_label
_atom_site_fract_x
_atom_site_fract_y
_atom_site_fract_z
C1  1.333970739573E-01  5.436404030281E-02  3.794041650164E-01
C2 -1.333970739573E-01 -5.436404030281E-02 -3.794041650164E-01
C3  1.490518092911E-01  1.672606844812E-01  2.975419448323E-01
C4 -1.490518092911E-01 -1.672606844812E-01 -2.975419448323E-01
C5  8.717016676004E-02  8.074060052382E-02  1.940884673298E-01
C6 -8.717016676004E-02 -8.074060052382E-02 -1.940884673298E-01
C7  1.013262031477E-01  1.918254893057E-01  1.090532699762E-01
C8 -1.013262031477E-01 -1.918254893057E-01 -1.090532699762E-01
C9  3.982719684482E-02  1.052112619077E-01  7.799617882788E-03
C10 -3.982719684482E-02 -1.052112619077E-01 -7.799617882788E-03
C11  5.357905958719E-02  2.164410793706E-01 -7.881056475293E-02
C12 -5.357905958719E-02 -2.164410793706E-01  7.881056475293E-02
C13  7.684217172588E-03 -1.297614728053E-01  1.784249294634E-01
C14 -7.684217172588E-03  1.297614728053E-01 -1.784249294634E-01
C15 -5.430704609797E-03 -2.421352694143E-01  2.669017410679E-01
C16  5.430704609797E-03  2.421352694143E-01 -2.669017410679E-01
C17  5.525215986329E-02 -1.533362172278E-01  3.638070904094E-01
C18 -5.525215986329E-02  1.533362172278E-01 -3.638070904094E-01
H19  1.802494803001E-01  1.215979837324E-01  4.574266256534E-01
H20 -1.802494803001E-01 -1.215979837324E-01 -4.574266256534E-01
H21  2.082129720960E-01  3.252192294663E-01  3.092594661800E-01
H22 -2.082129720960E-01 -3.252192294663E-01 -3.092594661800E-01
H23  1.606117760732E-01  3.497905967817E-01  1.207589942146E-01
H24 -1.606117760732E-01 -3.497905967817E-01 -1.207589942146E-01
H25  1.133867460070E-01  3.740829332318E-01 -6.720202575697E-02
H26 -1.133867460070E-01 -3.740829332318E-01  6.720202575697E-02
H27 -6.508591125678E-02 -3.996761176312E-01  2.552675952169E-01
H28  6.508591125678E-02  3.996761176312E-01 -2.552675952169E-01
H29  4.372732857463E-02 -2.402062373241E-01  4.300745194516E-01
H30 -4.372732857463E-02  2.402062373241E-01 -4.300745194516E-01
C31 -4.313543160163E-01 -4.156894249047E-01  3.789484959017E-01
C32  4.313543160163E-01  4.156894249047E-01 -3.789484959017E-01
C33 -4.936548093914E-01 -3.120356286143E-01  2.944364611332E-01
C34  4.936548093914E-01  3.120356286143E-01 -2.944364611332E-01
C35 -4.853320930102E-01 -4.056435808587E-01  1.927294626833E-01
C36  4.853320930102E-01  4.056435808587E-01 -1.927294626833E-01
C37  4.528655641921E-01 -3.033186669603E-01  1.052283812258E-01
C38 -4.528655641921E-01  3.033186669603E-01 -1.052283812258E-01
C39  4.622286829244E-01 -3.961410553954E-01  5.587100162741E-03
C40 -4.622286829244E-01  3.961410553954E-01 -5.587100162741E-03
C41  4.002381510564E-01 -2.935488124198E-01 -8.350615672902E-02
C42 -4.002381510564E-01  2.935488124198E-01  8.350615672902E-02
C43 -4.098816630086E-01  3.865541575110E-01  1.815488828825E-01
C44  4.098816630086E-01 -3.865541575110E-01 -1.815488828825E-01
C45 -3.464136206002E-01  2.839247656103E-01  2.726972063688E-01
C46  3.464136206002E-01 -2.839247656103E-01 -2.726972063688E-01
C47 -3.567682716690E-01  3.795416118923E-01  3.679204447841E-01
C48  3.567682716690E-01 -3.795416118923E-01 -3.679204447841E-01
H49 -4.385721314363E-01 -3.433959720024E-01  4.556417832158E-01
H50  4.385721314363E-01  3.433959720024E-01 -4.556417832158E-01
H51  4.494408313299E-01 -1.565970457708E-01  3.028985251750E-01
H52 -4.494408313299E-01  1.565970457708E-01 -3.028985251750E-01
H53  3.961101170977E-01 -1.476865603519E-01  1.136345001723E-01
H54 -3.961101170977E-01  1.476865603519E-01 -1.136345001723E-01
H55  3.433839363969E-01 -1.379455000843E-01 -7.517241432929E-02
H56 -3.433839363969E-01  1.379455000843E-01  7.517241432929E-02
H57 -2.894810657182E-01  1.284818012554E-01  2.644252425505E-01
H58  2.894810657182E-01 -1.284818012554E-01 -2.644252425505E-01
H59 -3.082363112222E-01  3.004961467185E-01  4.364899287086E-01
H60  3.082363112222E-01 -3.004961467185E-01 -4.364899287086E-01


#===END

data_OPT_STEP_71

_symmetry_space_group_name_H-M 'P 1'
_cell_length_a      7.85597932
_cell_length_b      6.30086768
_cell_length_c     13.18186392
_cell_angle_alpha   94.728963
_cell_angle_beta   99.353346
_cell_angle_gamma   90.387692

loop_
_atom_site_label
_atom_site_fract_x
_atom_site_fract_y
_atom_site_fract_z
C1  1.333664308315E-01  5.437656909887E-02  3.794102607085E-01
C2 -1.333664308315E-01 -5.437656909887E-02 -3.794102607085E-01
C3  1.490016651001E-01  1.672726235026E-01  2.975480375705E-01
C4 -1.490016651001E-01 -1.672726235026E-01 -2.975480375705E-01
C5  8.711431147629E-02  8.076480158730E-02  1.940849909432E-01
C6 -8.711431147629E-02 -8.076480158730E-02 -1.940849909432E-01
C7  1.012587016806E-01  1.918593909952E-01  1.090534636778E-01
C8 -1.012587016806E-01 -1.918593909952E-01 -1.090534636778E-01
C9  3.980194941784E-02  1.052277783075E-01  7.799417328421E-03
C10 -3.980194941784E-02 -1.052277783075E-01 -7.799417328421E-03
C11  5.355590417389E-02  2.164592623510E-01 -7.880423950376E-02
C12 -5.355590417389E-02 -2.164592623510E-01  7.880423950376E-02
C13  7.671050547557E-03 -1.297592977742E-01  1.784196770016E-01
C14 -7.671050547557E-03  1.297592977742E-01 -1.784196770016E-01
C15 -5.397564161678E-03 -2.421507969706E-01  2.668973254560E-01
C16  5.397564161678E-03  2.421507969706E-01 -2.668973254560E-01
C17  5.524863129811E-02 -1.533379746598E-01  3.638041036769E-01
C18 -5.524863129811E-02  1.533379746598E-01 -3.638041036769E-01
H19  1.802211254898E-01  1.216076706478E-01  4.574407328330E-01
H20 -1.802211254898E-01 -1.216076706478E-01 -4.574407328330E-01
H21  2.081515264751E-01  3.252307750643E-01  3.092695158447E-01
H22 -2.081515264751E-01 -3.252307750643E-01 -3.092695158447E-01
H23  1.604732701160E-01  3.498658175708E-01  1.207634975961E-01
H24 -1.604732701160E-01 -3.498658175708E-01 -1.207634975961E-01
H25  1.133306399708E-01  3.741213210897E-01 -6.719460837705E-02
H26 -1.133306399708E-01 -3.741213210897E-01  6.719460837705E-02
H27 -6.499212441963E-02 -3.997239017096E-01  2.552660181738E-01
H28  6.499212441963E-02  3.997239017096E-01 -2.552660181738E-01
H29  4.372352227847E-02 -2.402116677007E-01  4.300687571454E-01
H30 -4.372352227847E-02  2.402116677007E-01 -4.300687571454E-01
C31 -4.313829176084E-01 -4.157018983244E-01  3.789571734834E-01
C32  4.313829176084E-01  4.157018983244E-01 -3.789571734834E-01
C33 -4.936833631361E-01 -3.120493857971E-01  2.944335235268E-01
C34  4.936833631361E-01  3.120493857971E-01 -2.944335235268E-01
C35 -4.853527597485E-01 -4.056548252999E-01  1.927249029668E-01
C36  4.853527597485E-01  4.056548252999E-01 -1.927249029668E-01
C37  4.528388823353E-01 -3.033313835620E-01  1.052200445383E-01
C38 -4.528388823353E-01  3.033313835620E-01 -1.052200445383E-01
C39  4.622145660312E-01 -3.961488631606E-01  5.582484827958E-03
C40 -4.622145660312E-01  3.961488631606E-01 -5.582484827958E-03
C41  4.002375072449E-01 -2.935479456126E-01 -8.350567535830E-02
C42 -4.002375072449E-01  2.935479456126E-01  8.350567535830E-02
C43 -4.098901306639E-01  3.865502385010E-01  1.815450992964E-01
C44  4.098901306639E-01 -3.865502385010E-01 -1.815450992964E-01
C45 -3.464154916751E-01  2.839289102753E-01  2.726909803598E-01
C46  3.464154916751E-01 -2.839289102753E-01 -2.726909803598E-01
C47 -3.567900345653E-01  3.795353876465E-01  3.679187277967E-01
C48  3.567900345653E-01 -3.795353876465E-01 -3.679187277967E-01
H49 -4.386327050747E-01 -3.434251835976E-01  4.556595869117E-01
H50  4.386327050747E-01  3.434251835976E-01 -4.556595869117E-01
H51  4.494177463073E-01 -1.566026720898E-01  3.029006858372E-01
H52 -4.494177463073E-01  1.566026720898E-01 -3.029006858372E-01
H53  3.960745251768E-01 -1.477009248489E-01  1.136201604434E-01
H54 -3.960745251768E-01  1.477009248489E-01 -1.136201604434E-01
H55  3.433498839504E-01 -1.379601256574E-01 -7.518574570846E-02
H56 -3.433498839504E-01  1.379601256574E-01  7.518574570846E-02
H57 -2.894755944227E-01  1.284856093684E-01  2.644176972716E-01
H58  2.894755944227E-01 -1.284856093684E-01 -2.644176972716E-01
H59 -3.082465745674E-01  3.004959049722E-01  4.364944614776E-01
H60  3.082465745674E-01 -3.004959049722E-01 -4.364944614776E-01


#===END

data_OPT_STEP_72

_symmetry_space_group_name_H-M 'P 1'
_cell_length_a      7.85594187
_cell_length_b      6.30089257
_cell_length_c     13.18172445
_cell_angle_alpha   94.729450
_cell_angle_beta   99.351819
_cell_angle_gamma   90.386146

loop_
_atom_site_label
_atom_site_fract_x
_atom_site_fract_y
_atom_site_fract_z
C1  1.333769194089E-01  5.436917217561E-02  3.794066391245E-01
C2 -1.333769194089E-01 -5.436917217561E-02 -3.794066391245E-01
C3  1.490196183532E-01  1.672770914910E-01  2.975442638310E-01
C4 -1.490196183532E-01 -1.672770914910E-01 -2.975442638310E-01
C5  8.714462881553E-02  8.075888412935E-02  1.940920862566E-01
C6 -8.714462881553E-02 -8.075888412935E-02 -1.940920862566E-01
C7  1.012983855497E-01  1.918498630358E-01  1.090607088212E-01
C8 -1.012983855497E-01 -1.918498630358E-01 -1.090607088212E-01
C9  3.981494538486E-02  1.052198932097E-01  7.802438187645E-03
C10 -3.981494538486E-02 -1.052198932097E-01 -7.802438187645E-03
C11  5.356797690416E-02  2.164486587074E-01 -7.880842822953E-02
C12 -5.356797690416E-02 -2.164486587074E-01  7.880842822953E-02
C13  7.686976377500E-03 -1.297578543109E-01  1.784239710276E-01
C14 -7.686976377500E-03  1.297578543109E-01 -1.784239710276E-01
C15 -5.418358142619E-03 -2.421439748955E-01  2.669031622378E-01
C16  5.418358142619E-03  2.421439748955E-01 -2.669031622378E-01
C17  5.525193458384E-02 -1.533445605397E-01  3.638060669536E-01
C18 -5.525193458384E-02  1.533445605397E-01 -3.638060669536E-01
H19  1.802385321834E-01  1.215996155222E-01  4.574292692252E-01
H20 -1.802385321834E-01 -1.215996155222E-01 -4.574292692252E-01
H21  2.081801049155E-01  3.252380656599E-01  3.092613658118E-01
H22 -2.081801049155E-01 -3.252380656599E-01 -3.092613658118E-01
H23  1.605744267200E-01  3.498233958385E-01  1.207631776959E-01
H24 -1.605744267200E-01 -3.498233958385E-01 -1.207631776959E-01
H25  1.133582612441E-01  3.741026006081E-01 -6.719788369783E-02
H26 -1.133582612441E-01 -3.741026006081E-01  6.719788369783E-02
H27 -6.504973008193E-02 -3.997008056625E-01  2.552643628416E-01
H28  6.504973008193E-02  3.997008056625E-01 -2.552643628416E-01
H29  4.372884423079E-02 -2.402192215632E-01  4.300709730759E-01
H30 -4.372884423079E-02  2.402192215632E-01 -4.300709730759E-01
C31 -4.313642836369E-01 -4.156933273577E-01  3.789484620618E-01
C32  4.313642836369E-01  4.156933273577E-01 -3.789484620618E-01
C33 -4.936738845592E-01 -3.120475620668E-01  2.944350094989E-01
C34  4.936738845592E-01  3.120475620668E-01 -2.944350094989E-01
C35 -4.853527920119E-01 -4.056544982407E-01  1.927264597018E-01
C36  4.853527920119E-01  4.056544982407E-01 -1.927264597018E-01
C37  4.528434384830E-01 -3.033334670803E-01  1.052217593702E-01
C38 -4.528434384830E-01  3.033334670803E-01 -1.052217593702E-01
C39  4.622231469802E-01 -3.961452378156E-01  5.584916904945E-03
C40 -4.622231469802E-01  3.961452378156E-01 -5.584916904945E-03
C41  4.002369082433E-01 -2.935518203668E-01 -8.350909796866E-02
C42 -4.002369082433E-01  2.935518203668E-01  8.350909796866E-02
C43 -4.098916141173E-01  3.865526303280E-01  1.815483157761E-01
C44  4.098916141173E-01 -3.865526303280E-01 -1.815483157761E-01
C45 -3.464227148955E-01  2.839233582652E-01  2.727015445404E-01
C46  3.464227148955E-01 -2.839233582652E-01 -2.727015445404E-01
C47 -3.567750395638E-01  3.795381935670E-01  3.679193732185E-01
C48  3.567750395638E-01 -3.795381935670E-01 -3.679193732185E-01
H49 -4.385786158381E-01 -3.434007961570E-01  4.556383713749E-01
H50  4.385786158381E-01  3.434007961570E-01 -4.556383713749E-01
H51  4.494230824578E-01 -1.566087110015E-01  3.028948456973E-01
H52 -4.494230824578E-01  1.566087110015E-01 -3.028948456973E-01
H53  3.960807914864E-01 -1.477038969886E-01  1.136225563482E-01
H54 -3.960807914864E-01  1.477038969886E-01 -1.136225563482E-01
H55  3.433709036241E-01 -1.379589092738E-01 -7.517825048408E-02
H56 -3.433709036241E-01  1.379589092738E-01  7.517825048408E-02
H57 -2.894826034903E-01  1.284851145038E-01  2.644249462402E-01
H58  2.894826034903E-01 -1.284851145038E-01 -2.644249462402E-01
H59 -3.082417743611E-01  3.004903845595E-01  4.364890159750E-01
H60  3.082417743611E-01 -3.004903845595E-01 -4.364890159750E-01


#===END

data_OPT_STEP_73

_symmetry_space_group_name_H-M 'P 1'
_cell_length_a      7.85597309
_cell_length_b      6.30087466
_cell_length_c     13.18181847
_cell_angle_alpha   94.729200
_cell_angle_beta   99.353084
_cell_angle_gamma   90.387269

loop_
_atom_site_label
_atom_site_fract_x
_atom_site_fract_y
_atom_site_fract_z
C1  1.333670519295E-01  5.437478182012E-02  3.794097255938E-01
C2 -1.333670519295E-01 -5.437478182012E-02 -3.794097255938E-01
C3  1.490030195462E-01  1.672766486791E-01  2.975469873339E-01
C4 -1.490030195462E-01 -1.672766486791E-01 -2.975469873339E-01
C5  8.712234823992E-02  8.076419786067E-02  1.940887105639E-01
C6 -8.712234823992E-02 -8.076419786067E-02 -1.940887105639E-01
C7  1.012645024331E-01  1.918616964927E-01  1.090570262916E-01
C8 -1.012645024331E-01 -1.918616964927E-01 -1.090570262916E-01
C9  3.980415039170E-02  1.052265586388E-01  7.801036257787E-03
C10 -3.980415039170E-02 -1.052265586388E-01 -7.801036257787E-03
C11  5.355779626889E-02  2.164582554530E-01 -7.880547023172E-02
C12 -5.355779626889E-02 -2.164582554530E-01  7.880547023172E-02
C13  7.678636554935E-03 -1.297598114648E-01  1.784211212437E-01
C14 -7.678636554935E-03  1.297598114648E-01 -1.784211212437E-01
C15 -5.402782846123E-03 -2.421502937445E-01  2.668999462445E-01
C16  5.402782846123E-03  2.421502937445E-01 -2.668999462445E-01
C17  5.524929715139E-02 -1.533411257756E-01  3.638045218668E-01
C18 -5.524929715139E-02  1.533411257756E-01 -3.638045218668E-01
H19  1.802232024959E-01  1.216055967926E-01  4.574368938487E-01
H20 -1.802232024959E-01 -1.216055967926E-01 -4.574368938487E-01
H21  2.081576623862E-01  3.252365030764E-01  3.092676779973E-01
H22 -2.081576623862E-01 -3.252365030764E-01 -3.092676779973E-01
H23  1.604954827051E-01  3.498598128745E-01  1.207635406032E-01
H24 -1.604954827051E-01 -3.498598128745E-01 -1.207635406032E-01
H25  1.133358412420E-01  3.741192292029E-01 -6.719469534841E-02
H26 -1.133358412420E-01 -3.741192292029E-01  6.719469534841E-02
H27 -6.500513423277E-02 -3.997219841137E-01  2.552648391677E-01
H28  6.500513423277E-02  3.997219841137E-01 -2.552648391677E-01
H29  4.372483203244E-02 -2.402149352577E-01  4.300688602648E-01
H30 -4.372483203244E-02  2.402149352577E-01 -4.300688602648E-01
C31 -4.313821799421E-01 -4.157013930719E-01  3.789536329212E-01
C32  4.313821799421E-01  4.157013930719E-01 -3.789536329212E-01
C33 -4.936802851589E-01 -3.120492882893E-01  2.944353170341E-01
C34  4.936802851589E-01  3.120492882893E-01 -2.944353170341E-01
C35 -4.853523607849E-01 -4.056533381559E-01  1.927263368578E-01
C36  4.853523607849E-01  4.056533381559E-01 -1.927263368578E-01
C37  4.528405760508E-01 -3.033320983493E-01  1.052208007258E-01
C38 -4.528405760508E-01  3.033320983493E-01 -1.052208007258E-01
C39  4.622181286251E-01 -3.961471214463E-01  5.583694109182E-03
C40 -4.622181286251E-01  3.961471214463E-01 -5.583694109182E-03
C41  4.002341639005E-01 -2.935511036317E-01 -8.350840886641E-02
C42 -4.002341639005E-01  2.935511036317E-01  8.350840886641E-02
C43 -4.098898522617E-01  3.865533985568E-01  1.815467370904E-01
C44  4.098898522617E-01 -3.865533985568E-01 -1.815467370904E-01
C45 -3.464167880472E-01  2.839292199740E-01  2.726969584724E-01
C46  3.464167880472E-01 -2.839292199740E-01 -2.726969584724E-01
C47 -3.567867157246E-01  3.795351096668E-01  3.679184242862E-01
C48  3.567867157246E-01 -3.795351096668E-01 -3.679184242862E-01
H49 -4.386220977054E-01 -3.434234830900E-01  4.556500341021E-01
H50  4.386220977054E-01  3.434234830900E-01 -4.556500341021E-01
H51  4.494185262358E-01 -1.566066264177E-01  3.028987171379E-01
H52 -4.494185262358E-01  1.566066264177E-01 -3.028987171379E-01
H53  3.960760223179E-01 -1.477027200536E-01  1.136203579298E-01
H54 -3.960760223179E-01  1.477027200536E-01 -1.136203579298E-01
H55  3.433554795096E-01 -1.379619224532E-01 -7.518421332286E-02
H56 -3.433554795096E-01  1.379619224532E-01  7.518421332286E-02
H57 -2.894761571919E-01  1.284889761635E-01  2.644205887900E-01
H58  2.894761571919E-01 -1.284889761635E-01 -2.644205887900E-01
H59 -3.082469257443E-01  3.004918868039E-01  4.364921240690E-01
H60  3.082469257443E-01 -3.004918868039E-01 -4.364921240690E-01


#===END

data_OPT_STEP_74

_symmetry_space_group_name_H-M 'P 1'
_cell_length_a      7.85595556
_cell_length_b      6.30089040
_cell_length_c     13.18173528
_cell_angle_alpha   94.729529
_cell_angle_beta   99.352416
_cell_angle_gamma   90.386457

loop_
_atom_site_label
_atom_site_fract_x
_atom_site_fract_y
_atom_site_fract_z
C1  1.333710068982E-01  5.437195437319E-02  3.794082519650E-01
C2 -1.333710068982E-01 -5.437195437319E-02 -3.794082519650E-01
C3  1.490104946251E-01  1.672820164799E-01  2.975457499254E-01
C4 -1.490104946251E-01 -1.672820164799E-01 -2.975457499254E-01
C5  8.713848863822E-02  8.076090652930E-02  1.940938550839E-01
C6 -8.713848863822E-02 -8.076090652930E-02 -1.940938550839E-01
C7  1.012792271160E-01  1.918603848703E-01  1.090616245214E-01
C8 -1.012792271160E-01 -1.918603848703E-01 -1.090616245214E-01
C9  3.980931879753E-02  1.052232191479E-01  7.803157941894E-03
C10 -3.980931879753E-02 -1.052232191479E-01 -7.803157941894E-03
C11  5.356149098876E-02  2.164552461425E-01 -7.880796048573E-02
C12 -5.356149098876E-02 -2.164552461425E-01  7.880796048573E-02
C13  7.690305219319E-03 -1.297615099476E-01  1.784235132968E-01
C14 -7.690305219319E-03  1.297615099476E-01 -1.784235132968E-01
C15 -5.415102273955E-03 -2.421489139946E-01  2.669028583613E-01
C16  5.415102273955E-03  2.421489139946E-01 -2.669028583613E-01
C17  5.525052084802E-02 -1.533453074861E-01  3.638054146860E-01
C18 -5.525052084802E-02  1.533453074861E-01 -3.638054146860E-01
H19  1.802297923372E-01  1.216025985500E-01  4.574301603060E-01
H20 -1.802297923372E-01 -1.216025985500E-01 -4.574301603060E-01
H21  2.081717238133E-01  3.252438364582E-01  3.092642021389E-01
H22 -2.081717238133E-01 -3.252438364582E-01 -3.092642021389E-01
H23  1.605435635872E-01  3.498414552666E-01  1.207630133783E-01
H24 -1.605435635872E-01 -3.498414552666E-01 -1.207630133783E-01
H25  1.133479174434E-01  3.741119004586E-01 -6.719585964242E-02
H26 -1.133479174434E-01 -3.741119004586E-01  6.719585964242E-02
H27 -6.503460116120E-02 -3.997137913355E-01  2.552624625550E-01
H28  6.503460116120E-02  3.997137913355E-01 -2.552624625550E-01
H29  4.372861052792E-02 -2.402197835100E-01  4.300700239321E-01
H30 -4.372861052792E-02  2.402197835100E-01 -4.300700239321E-01
C31 -4.313781805162E-01 -4.157001574129E-01  3.789472761804E-01
C32  4.313781805162E-01  4.157001574129E-01 -3.789472761804E-01
C33 -4.936764288943E-01 -3.120493429902E-01  2.944364797766E-01
C34  4.936764288943E-01  3.120493429902E-01 -2.944364797766E-01
C35 -4.853511175129E-01 -4.056516952507E-01  1.927280968582E-01
C36  4.853511175129E-01  4.056516952507E-01 -1.927280968582E-01
C37  4.528457321017E-01 -3.033317305500E-01  1.052228339234E-01
C38 -4.528457321017E-01  3.033317305500E-01 -1.052228339234E-01
C39  4.622235829524E-01 -3.961449774224E-01  5.585264617248E-03
C40 -4.622235829524E-01  3.961449774224E-01 -5.585264617248E-03
C41  4.002308274043E-01 -2.935553807436E-01 -8.351176644171E-02
C42 -4.002308274043E-01  2.935553807436E-01  8.351176644171E-02
C43 -4.098888162662E-01  3.865572660579E-01  1.815493595196E-01
C44  4.098888162662E-01 -3.865572660579E-01 -1.815493595196E-01
C45 -3.464228685084E-01  2.839256524205E-01  2.727042374111E-01
C46  3.464228685084E-01 -2.839256524205E-01 -2.727042374111E-01
C47 -3.567786834303E-01  3.795366149702E-01  3.679188146997E-01
C48  3.567786834303E-01 -3.795366149702E-01 -3.679188146997E-01
H49 -4.385954989320E-01 -3.434135346115E-01  4.556363664819E-01
H50  4.385954989320E-01  3.434135346115E-01 -4.556363664819E-01
H51  4.494203043755E-01 -1.566116692626E-01  3.028950758160E-01
H52 -4.494203043755E-01  1.566116692626E-01 -3.028950758160E-01
H53  3.960804448873E-01 -1.477045702388E-01  1.136219345758E-01
H54 -3.960804448873E-01  1.477045702388E-01 -1.136219345758E-01
H55  3.433662619149E-01 -1.379626926403E-01 -7.518084318465E-02
H56 -3.433662619149E-01  1.379626926403E-01  7.518084318465E-02
H57 -2.894780657023E-01  1.284917931101E-01  2.644251453745E-01
H58  2.894780657023E-01 -1.284917931101E-01 -2.644251453745E-01
H59 -3.082457496841E-01  3.004878321835E-01  4.364888397237E-01
H60  3.082457496841E-01 -3.004878321835E-01 -4.364888397237E-01


#===END

data_OPT_STEP_75

_symmetry_space_group_name_H-M 'P 1'
_cell_length_a      7.85591143
_cell_length_b      6.30091842
_cell_length_c     13.18160235
_cell_angle_alpha   94.729905
_cell_angle_beta   99.350782
_cell_angle_gamma   90.385001

loop_
_atom_site_label
_atom_site_fract_x
_atom_site_fract_y
_atom_site_fract_z
C1  1.333839372150E-01  5.436415032017E-02  3.794047920709E-01
C2 -1.333839372150E-01 -5.436415032017E-02 -3.794047920709E-01
C3  1.490321672756E-01  1.672823666219E-01  2.975426162962E-01
C4 -1.490321672756E-01 -1.672823666219E-01 -2.975426162962E-01
C5  8.716833080812E-02  8.075217490532E-02  1.940987090858E-01
C6 -8.716833080812E-02 -8.075217490532E-02 -1.940987090858E-01
C7  1.013161996335E-01  1.918467698284E-01  1.090655544432E-01
C8 -1.013161996335E-01 -1.918467698284E-01 -1.090655544432E-01
C9  3.982204611369E-02  1.052148165409E-01  7.805111577496E-03
C10 -3.982204611369E-02 -1.052148165409E-01 -7.805111577496E-03
C11  5.357443803802E-02  2.164443672059E-01 -7.881176316326E-02
C12 -5.357443803802E-02 -2.164443672059E-01  7.881176316326E-02
C13  7.702446210185E-03 -1.297600484462E-01  1.784267476703E-01
C14 -7.702446210185E-03  1.297600484462E-01 -1.784267476703E-01
C15 -5.436210266434E-03 -2.421407280492E-01  2.669079658029E-01
C16  5.436210266434E-03  2.421407280492E-01 -2.669079658029E-01
C17  5.525248273115E-02 -1.533492302133E-01  3.638069736223E-01
C18 -5.525248273115E-02  1.533492302133E-01 -3.638069736223E-01
H19  1.802500196993E-01  1.215949080710E-01  4.574201147903E-01
H20 -1.802500196993E-01 -1.215949080710E-01 -4.574201147903E-01
H21  2.082027779107E-01  3.252450310736E-01  3.092565891599E-01
H22 -2.082027779107E-01 -3.252450310736E-01 -3.092565891599E-01
H23  1.606421151239E-01  3.497947975692E-01  1.207597662363E-01
H24 -1.606421151239E-01 -3.497947975692E-01 -1.207597662363E-01
H25  1.133764109589E-01  3.740919486653E-01 -6.719949890181E-02
H26 -1.133764109589E-01 -3.740919486653E-01  6.719949890181E-02
H27 -6.509232718383E-02 -3.996875860719E-01  2.552615507186E-01
H28  6.509232718383E-02  3.996875860719E-01 -2.552615507186E-01
H29  4.373309637745E-02 -2.402240986022E-01  4.300721597210E-01
H30 -4.373309637745E-02  2.402240986022E-01 -4.300721597210E-01
C31 -4.313585391171E-01 -4.156905256260E-01  3.789399232641E-01
C32  4.313585391171E-01  4.156905256260E-01 -3.789399232641E-01
C33 -4.936662291425E-01 -3.120458656480E-01  2.944375199965E-01
C34  4.936662291425E-01  3.120458656480E-01 -2.944375199965E-01
C35 -4.853492830310E-01 -4.056517182243E-01  1.927293922004E-01
C36  4.853492830310E-01  4.056517182243E-01 -1.927293922004E-01
C37  4.528514517903E-01 -3.033319825165E-01  1.052247266352E-01
C38 -4.528514517903E-01  3.033319825165E-01 -1.052247266352E-01
C39  4.622312203731E-01 -3.961415934095E-01  5.587138255836E-03
C40 -4.622312203731E-01  3.961415934095E-01 -5.587138255836E-03
C41  4.002313033219E-01 -2.935567948388E-01 -8.351409802050E-02
C42 -4.002313033219E-01  2.935567948388E-01  8.351409802050E-02
C43 -4.098896925190E-01  3.865574777455E-01  1.815517596298E-01
C44  4.098896925190E-01 -3.865574777455E-01 -1.815517596298E-01
C45 -3.464323053837E-01  2.839172721781E-01  2.727123422387E-01
C46  3.464323053837E-01 -2.839172721781E-01 -2.727123422387E-01
C47 -3.567654963525E-01  3.795395907616E-01  3.679187745561E-01
C48  3.567654963525E-01 -3.795395907616E-01 -3.679187745561E-01
H49 -4.385378375712E-01 -3.433830095890E-01  4.556197075776E-01
H50  4.385378375712E-01  3.433830095890E-01 -4.556197075776E-01
H51  4.494279576896E-01 -1.566137368330E-01  3.028904744194E-01
H52 -4.494279576896E-01  1.566137368330E-01 -3.028904744194E-01
H53  3.960888351601E-01 -1.477049788638E-01  1.136254400774E-01
H54 -3.960888351601E-01  1.477049788638E-01 -1.136254400774E-01
H55  3.433861285555E-01 -1.379582776198E-01 -7.517368479660E-02
H56 -3.433861285555E-01  1.379582776198E-01  7.517368479660E-02
H57 -2.894857662902E-01  1.284878716895E-01  2.644309320453E-01
H58  2.894857662902E-01 -1.284878716895E-01 -2.644309320453E-01
H59 -3.082384386088E-01  3.004860613473E-01  4.364845305857E-01
H60  3.082384386088E-01 -3.004860613473E-01 -4.364845305857E-01


#===END

data_OPT_STEP_76

_symmetry_space_group_name_H-M 'P 1'
_cell_length_a      7.85594783
_cell_length_b      6.30089824
_cell_length_c     13.18169051
_cell_angle_alpha   94.729740
_cell_angle_beta   99.352114
_cell_angle_gamma   90.386052

loop_
_atom_site_label
_atom_site_fract_x
_atom_site_fract_y
_atom_site_fract_z
C1  1.333723201969E-01  5.437013915123E-02  3.794076749664E-01
C2 -1.333723201969E-01 -5.437013915123E-02 -3.794076749664E-01
C3  1.490132547528E-01  1.672851083800E-01  2.975451967622E-01
C4 -1.490132547528E-01 -1.672851083800E-01 -2.975451967622E-01
C5  8.714649998613E-02  8.075932152447E-02  1.940967299377E-01
C6 -8.714649998613E-02 -8.075932152447E-02 -1.940967299377E-01
C7  1.012845853697E-01  1.918610777514E-01  1.090640276453E-01
C8 -1.012845853697E-01 -1.918610777514E-01 -1.090640276453E-01
C9  3.981160734821E-02  1.052218655176E-01  7.804446951149E-03
C10 -3.981160734821E-02 -1.052218655176E-01 -7.804446951149E-03
C11  5.356369550703E-02  2.164539867925E-01 -7.880903875754E-02
C12 -5.356369550703E-02 -2.164539867925E-01  7.880903875754E-02
C13  7.696726410377E-03 -1.297621284672E-01  1.784245803601E-01
C14 -7.696726410377E-03  1.297621284672E-01 -1.784245803601E-01
C15 -5.420704132008E-03 -2.421481507404E-01  2.669051493055E-01
C16  5.420704132008E-03  2.421481507404E-01 -2.669051493055E-01
C17  5.525086214722E-02 -1.533476498775E-01  3.638057548199E-01
C18 -5.525086214722E-02  1.533476498775E-01 -3.638057548199E-01
H19  1.802328666862E-01  1.216008080531E-01  4.574267755654E-01
H20 -1.802328666862E-01 -1.216008080531E-01 -4.574267755654E-01
H21  2.081784855819E-01  3.252480193448E-01  3.092624764663E-01
H22 -2.081784855819E-01 -3.252480193448E-01 -3.092624764663E-01
H23  1.605666914798E-01  3.498334794306E-01  1.207623340845E-01
H24 -1.605666914798E-01 -3.498334794306E-01 -1.207623340845E-01
H25  1.133535300936E-01  3.741091110228E-01 -6.719615595855E-02
H26 -1.133535300936E-01 -3.741091110228E-01  6.719615595855E-02
H27 -6.504833677103E-02 -3.997107057933E-01  2.552614340166E-01
H28  6.504833677103E-02  3.997107057933E-01 -2.552614340166E-01
H29  4.373007558514E-02 -2.402223437953E-01  4.300701931976E-01
H30 -4.373007558514E-02  2.402223437953E-01 -4.300701931976E-01
C31 -4.313768019723E-01 -4.156995460872E-01  3.789440477980E-01
C32  4.313768019723E-01  4.156995460872E-01 -3.789440477980E-01
C33 -4.936735800095E-01 -3.120489807129E-01  2.944378046949E-01
C34  4.936735800095E-01  3.120489807129E-01 -2.944378046949E-01
C35 -4.853503290474E-01 -4.056506004499E-01  1.927293105911E-01
C36  4.853503290474E-01  4.056506004499E-01 -1.927293105911E-01
C37  4.528476366865E-01 -3.033319148616E-01  1.052235519040E-01
C38 -4.528476366865E-01  3.033319148616E-01 -1.052235519040E-01
C39  4.622266143921E-01 -3.961435568272E-01  5.586093903360E-03
C40 -4.622266143921E-01  3.961435568272E-01 -5.586093903360E-03
C41  4.002280190677E-01 -2.935579406472E-01 -8.351410819139E-02
C42 -4.002280190677E-01  2.935579406472E-01  8.351410819139E-02
C43 -4.098881816096E-01  3.865596858242E-01  1.815507943257E-01
C44  4.098881816096E-01 -3.865596858242E-01 -1.815507943257E-01
C45 -3.464252211811E-01  2.839247395578E-01  2.727092534998E-01
C46  3.464252211811E-01 -2.839247395578E-01 -2.727092534998E-01
C47 -3.567756896761E-01  3.795365130049E-01  3.679183885961E-01
C48  3.567756896761E-01 -3.795365130049E-01 -3.679183885961E-01
H49 -4.385827572861E-01 -3.434091414417E-01  4.556282765845E-01
H50  4.385827572861E-01  3.434091414417E-01 -4.556282765845E-01
H51  4.494213102319E-01 -1.566145556211E-01  3.028933189701E-01
H52 -4.494213102319E-01  1.566145556211E-01 -3.028933189701E-01
H53  3.960822237771E-01 -1.477057212499E-01  1.136223776984E-01
H54 -3.960822237771E-01  1.477057212499E-01 -1.136223776984E-01
H55  3.433716726619E-01 -1.379635213115E-01 -7.517937220068E-02
H56 -3.433716726619E-01  1.379635213115E-01  7.517937220068E-02
H57 -2.894786640315E-01  1.284939374097E-01  2.644277790881E-01
H58  2.894786640315E-01 -1.284939374097E-01 -2.644277790881E-01
H59 -3.082452951622E-01  3.004846750239E-01  4.364869230629E-01
H60  3.082452951622E-01 -3.004846750239E-01 -4.364869230629E-01


#===END

data_OPT_STEP_77

_symmetry_space_group_name_H-M 'P 1'
_cell_length_a      7.85592843
_cell_length_b      6.30091335
_cell_length_c     13.18161442
_cell_angle_alpha   94.730017
_cell_angle_beta   99.351384
_cell_angle_gamma   90.385283

loop_
_atom_site_label
_atom_site_fract_x
_atom_site_fract_y
_atom_site_fract_z
C1  1.333775011388E-01  5.436697860815E-02  3.794061933694E-01
C2 -1.333775011388E-01 -5.436697860815E-02 -3.794061933694E-01
C3  1.490221631487E-01  1.672882171963E-01  2.975441727756E-01
C4 -1.490221631487E-01 -1.672882171963E-01 -2.975441727756E-01
C5  8.716179225649E-02  8.075580027695E-02  1.941004719453E-01
C6 -8.716179225649E-02 -8.075580027695E-02 -1.941004719453E-01
C7  1.013014946752E-01  1.918572815010E-01  1.090676201434E-01
C8 -1.013014946752E-01 -1.918572815010E-01 -1.090676201434E-01
C9  3.981709268498E-02  1.052183708069E-01  7.806003457225E-03
C10 -3.981709268498E-02 -1.052183708069E-01 -7.806003457225E-03
C11  5.356822660312E-02  2.164499443423E-01 -7.881119510255E-02
C12 -5.356822660312E-02 -2.164499443423E-01  7.881119510255E-02
C13  7.705942937004E-03 -1.297626989256E-01  1.784265839320E-01
C14 -7.705942937004E-03  1.297626989256E-01 -1.784265839320E-01
C15 -5.432881446325E-03 -2.421456183127E-01  2.669075608963E-01
C16  5.432881446325E-03  2.421456183127E-01 -2.669075608963E-01
C17  5.525203342876E-02 -1.533504601898E-01  3.638066855219E-01
C18 -5.525203342876E-02  1.533504601898E-01 -3.638066855219E-01
H19  1.802411454288E-01  1.215977281411E-01  4.574210974639E-01
H20 -1.802411454288E-01 -1.215977281411E-01 -4.574210974639E-01
H21  2.081928676322E-01  3.252522074972E-01  3.092589613730E-01
H22 -2.081928676322E-01 -3.252522074972E-01 -3.092589613730E-01
H23  1.606160271145E-01  3.498129190586E-01  1.207612934209E-01
H24 -1.606160271145E-01 -3.498129190586E-01 -1.207612934209E-01
H25  1.133661483645E-01  3.741005981224E-01 -6.719767629135E-02
H26 -1.133661483645E-01 -3.741005981224E-01  6.719767629135E-02
H27 -6.507787267993E-02 -3.997004280939E-01  2.552597014594E-01
H28  6.507787267993E-02  3.997004280939E-01 -2.552597014594E-01
H29  4.373358184909E-02 -2.402256960119E-01  4.300714704058E-01
H30 -4.373358184909E-02  2.402256960119E-01 -4.300714704058E-01
C31 -4.313697524540E-01 -4.156966767099E-01  3.789390681304E-01
C32  4.313697524540E-01  4.156966767099E-01 -3.789390681304E-01
C33 -4.936698623768E-01 -3.120486883592E-01  2.944381753816E-01
C34  4.936698623768E-01  3.120486883592E-01 -2.944381753816E-01
C35 -4.853493643628E-01 -4.056500854891E-01  1.927303463520E-01
C36  4.853493643628E-01  4.056500854891E-01 -1.927303463520E-01
C37  4.528521776935E-01 -3.033316676869E-01  1.052250447852E-01
C38 -4.528521776935E-01  3.033316676869E-01 -1.052250447852E-01
C39  4.622311020140E-01 -3.961418511604E-01  5.587103924041E-03
C40 -4.622311020140E-01  3.961418511604E-01 -5.587103924041E-03
C41  4.002263768623E-01 -2.935607234403E-01 -8.351646836270E-02
C42 -4.002263768623E-01  2.935607234403E-01  8.351646836270E-02
C43 -4.098876791964E-01  3.865616810530E-01  1.815527738644E-01
C44  4.098876791964E-01 -3.865616810530E-01 -1.815527738644E-01
C45 -3.464315470131E-01  2.839202075671E-01  2.727147341747E-01
C46  3.464315470131E-01 -2.839202075671E-01 -2.727147341747E-01
C47 -3.567678603078E-01  3.795384630867E-01  3.679189626963E-01
C48  3.567678603078E-01 -3.795384630867E-01 -3.679189626963E-01
H49 -4.385538458124E-01 -3.433951846408E-01  4.556173072476E-01
H50  4.385538458124E-01  3.433951846408E-01 -4.556173072476E-01
H51  4.494235343086E-01 -1.566178923777E-01  3.028901053796E-01
H52 -4.494235343086E-01  1.566178923777E-01 -3.028901053796E-01
H53  3.960863655730E-01 -1.477069125197E-01  1.136238974230E-01
H54 -3.960863655730E-01  1.477069125197E-01 -1.136238974230E-01
H55  3.433819203361E-01 -1.379629797029E-01 -7.517613282898E-02
H56 -3.433819203361E-01  1.379629797029E-01  7.517613282898E-02
H57 -2.894813959164E-01  1.284943108666E-01  2.644316939463E-01
H58  2.894813959164E-01 -1.284943108666E-01 -2.644316939463E-01
H59 -3.082429734141E-01  3.004818471341E-01  4.364845154839E-01
H60  3.082429734141E-01 -3.004818471341E-01 -4.364845154839E-01


#===END

data_OPT_STEP_78

_symmetry_space_group_name_H-M 'P 1'
_cell_length_a      7.85594429
_cell_length_b      6.30090195
_cell_length_c     13.18166799
_cell_angle_alpha   94.729848
_cell_angle_beta   99.351975
_cell_angle_gamma   90.385846

loop_
_atom_site_label
_atom_site_fract_x
_atom_site_fract_y
_atom_site_fract_z
C1  1.333729316413E-01  5.436935875549E-02  3.794075111565E-01
C2 -1.333729316413E-01 -5.436935875549E-02 -3.794075111565E-01
C3  1.490141981385E-01  1.672869445828E-01  2.975448263763E-01
C4 -1.490141981385E-01 -1.672869445828E-01 -2.975448263763E-01
C5  8.715057820550E-02  8.075867975694E-02  1.940984766414E-01
C6 -8.715057820550E-02 -8.075867975694E-02 -1.940984766414E-01
C7  1.012871340852E-01  1.918619242965E-01  1.090656576446E-01
C8 -1.012871340852E-01 -1.918619242965E-01 -1.090656576446E-01
C9  3.981270937721E-02  1.052211298532E-01  7.805211703104E-03
C10 -3.981270937721E-02 -1.052211298532E-01 -7.805211703104E-03
C11  5.356460808180E-02  2.164535878420E-01 -7.880970067517E-02
C12 -5.356460808180E-02 -2.164535878420E-01  7.880970067517E-02
C13  7.700452377640E-03 -1.297624803367E-01  1.784251732368E-01
C14 -7.700452377640E-03  1.297624803367E-01 -1.784251732368E-01
C15 -5.423777155744E-03 -2.421479266221E-01  2.669062825132E-01
C16  5.423777155744E-03  2.421479266221E-01 -2.669062825132E-01
C17  5.525116946067E-02 -1.533489331928E-01  3.638059391359E-01
C18 -5.525116946067E-02  1.533489331928E-01 -3.638059391359E-01
H19  1.802339919707E-01  1.215999279850E-01  4.574248883811E-01
H20 -1.802339919707E-01 -1.215999279850E-01 -4.574248883811E-01
H21  2.081817347622E-01  3.252504909749E-01  3.092616727895E-01
H22 -2.081817347622E-01 -3.252504909749E-01 -3.092616727895E-01
H23  1.605777329185E-01  3.498301425312E-01  1.207621271392E-01
H24 -1.605777329185E-01 -3.498301425312E-01 -1.207621271392E-01
H25  1.133561663893E-01  3.741079448365E-01 -6.719624794411E-02
H26 -1.133561663893E-01 -3.741079448365E-01  6.719624794411E-02
H27 -6.505493411643E-02 -3.997097252084E-01  2.552607342918E-01
H28  6.505493411643E-02  3.997097252084E-01 -2.552607342918E-01
H29  4.373087466874E-02 -2.402236166441E-01  4.300702817529E-01
H30 -4.373087466874E-02  2.402236166441E-01 -4.300702817529E-01
C31 -4.313767965791E-01 -4.156993655015E-01  3.789422998241E-01
C32  4.313767965791E-01  4.156993655015E-01 -3.789422998241E-01
C33 -4.936721394227E-01 -3.120489868255E-01  2.944386482506E-01
C34  4.936721394227E-01  3.120489868255E-01 -2.944386482506E-01
C35 -4.853499513472E-01 -4.056499111396E-01  1.927300508253E-01
C36  4.853499513472E-01  4.056499111396E-01 -1.927300508253E-01
C37  4.528488726215E-01 -3.033319689337E-01  1.052240901945E-01
C38 -4.528488726215E-01  3.033319689337E-01 -1.052240901945E-01
C39  4.622284090667E-01 -3.961427392442E-01  5.586665200381E-03
C40 -4.622284090667E-01  3.961427392442E-01 -5.586665200381E-03
C41  4.002262365804E-01 -2.935593683861E-01 -8.351553465250E-02
C42 -4.002262365804E-01  2.935593683861E-01  8.351553465250E-02
C43 -4.098878887812E-01  3.865612508265E-01  1.815514926884E-01
C44  4.098878887812E-01 -3.865612508265E-01 -1.815514926884E-01
C45 -3.464264828940E-01  2.839243572450E-01  2.727121971355E-01
C46  3.464264828940E-01 -2.839243572450E-01 -2.727121971355E-01
C47 -3.567737933674E-01  3.795366144242E-01  3.679181760754E-01
C48  3.567737933674E-01 -3.795366144242E-01 -3.679181760754E-01
H49 -4.385769701702E-01 -3.434077372363E-01  4.556238089843E-01
H50  4.385769701702E-01  3.434077372363E-01 -4.556238089843E-01
H51  4.494217418466E-01 -1.566163888158E-01  3.028923405838E-01
H52 -4.494217418466E-01  1.566163888158E-01 -3.028923405838E-01
H53  3.960830937802E-01 -1.477065200684E-01  1.136225530771E-01
H54 -3.960830937802E-01  1.477065200684E-01 -1.136225530771E-01
H55  3.433743749326E-01 -1.379641790402E-01 -7.517864294124E-02
H56 -3.433743749326E-01  1.379641790402E-01  7.517864294124E-02
H57 -2.894789336683E-01  1.284953944235E-01  2.644290600571E-01
H58  2.894789336683E-01 -1.284953944235E-01 -2.644290600571E-01
H59 -3.082452842139E-01  3.004829732518E-01  4.364858734221E-01
H60  3.082452842139E-01 -3.004829732518E-01 -4.364858734221E-01


#===END

data_OPT_STEP_79

_symmetry_space_group_name_H-M 'P 1'
_cell_length_a      7.85593582
_cell_length_b      6.30090984
_cell_length_c     13.18162495
_cell_angle_alpha   94.730027
_cell_angle_beta   99.351649
_cell_angle_gamma   90.385443

loop_
_atom_site_label
_atom_site_fract_x
_atom_site_fract_y
_atom_site_fract_z
C1  1.333746713164E-01  5.436787923186E-02  3.794067700208E-01
C2 -1.333746713164E-01 -5.436787923186E-02 -3.794067700208E-01
C3  1.490177079930E-01  1.672896670890E-01  2.975443368074E-01
C4 -1.490177079930E-01 -1.672896670890E-01 -2.975443368074E-01
C5  8.715841044093E-02  8.075720889326E-02  1.941009849162E-01
C6 -8.715841044093E-02 -8.075720889326E-02 -1.941009849162E-01
C7  1.012939663409E-01  1.918615614013E-01  1.090679887799E-01
C8 -1.012939663409E-01 -1.918615614013E-01 -1.090679887799E-01
C9  3.981509486736E-02  1.052196410102E-01  7.806278949216E-03
C10 -3.981509486736E-02 -1.052196410102E-01 -7.806278949216E-03
C11  5.356664929660E-02  2.164520601418E-01 -7.881086156811E-02
C12 -5.356664929660E-02 -2.164520601418E-01  7.881086156811E-02
C13  7.706414060636E-03 -1.297632243174E-01  1.784263055533E-01
C14 -7.706414060636E-03  1.297632243174E-01 -1.784263055533E-01
C15 -5.429886479397E-03 -2.421472238874E-01  2.669078719692E-01
C16  5.429886479397E-03  2.421472238874E-01 -2.669078719692E-01
C17  5.525164870766E-02 -1.533510038519E-01  3.638063610246E-01
C18 -5.525164870766E-02  1.533510038519E-01 -3.638063610246E-01
H19  1.802374624817E-01  1.215984155073E-01  4.574216196221E-01
H20 -1.802374624817E-01 -1.215984155073E-01 -4.574216196221E-01
H21  2.081886666444E-01  3.252540232005E-01  3.092599738954E-01
H22 -2.081886666444E-01 -3.252540232005E-01 -3.092599738954E-01
H23  1.606016066113E-01  3.498211689394E-01  1.207616310537E-01
H24 -1.606016066113E-01 -3.498211689394E-01 -1.207616310537E-01
H25  1.133620789648E-01  3.741044913318E-01 -6.719672122130E-02
H26 -1.133620789648E-01 -3.741044913318E-01  6.719672122130E-02
H27 -6.506931260891E-02 -3.997059347158E-01  2.552595934417E-01
H28  6.506931260891E-02  3.997059347158E-01 -2.552595934417E-01
H29  4.373267948656E-02 -2.402260426683E-01  4.300707974874E-01
H30 -4.373267948656E-02  2.402260426683E-01 -4.300707974874E-01
C31 -4.313746560984E-01 -4.156987393751E-01  3.789392647191E-01
C32  4.313746560984E-01  4.156987393751E-01 -3.789392647191E-01
C33 -4.936701840977E-01 -3.120489304333E-01  2.944392356244E-01
C34  4.936701840977E-01  3.120489304333E-01 -2.944392356244E-01
C35 -4.853493535114E-01 -4.056491126245E-01  1.927309223390E-01
C36  4.853493535114E-01  4.056491126245E-01 -1.927309223390E-01
C37  4.528512084058E-01 -3.033320200147E-01  1.052249194212E-01
C38 -4.528512084058E-01  3.033320200147E-01 -1.052249194212E-01
C39  4.622310492723E-01 -3.961418086302E-01  5.587331736110E-03
C40 -4.622310492723E-01  3.961418086302E-01 -5.587331736110E-03
C41  4.002245845996E-01 -2.935616111086E-01 -8.351729731392E-02
C42 -4.002245845996E-01  2.935616111086E-01  8.351729731392E-02
C43 -4.098871390099E-01  3.865633661498E-01  1.815528112872E-01
C44  4.098871390099E-01 -3.865633661498E-01 -1.815528112872E-01
C45 -3.464297320739E-01  2.839223940870E-01  2.727160894543E-01
C46  3.464297320739E-01 -2.839223940870E-01 -2.727160894543E-01
C47 -3.567698457573E-01  3.795373062788E-01  3.679182734071E-01
C48  3.567698457573E-01 -3.795373062788E-01 -3.679182734071E-01
H49 -4.385633060748E-01 -3.434024771514E-01  4.556168307168E-01
H50  4.385633060748E-01  3.434024771514E-01 -4.556168307168E-01
H51  4.494225788552E-01 -1.566187906873E-01  3.028905489838E-01
H52 -4.494225788552E-01  1.566187906873E-01 -3.028905489838E-01
H53  3.960850158711E-01 -1.477075275361E-01  1.136231080546E-01
H54 -3.960850158711E-01  1.477075275361E-01 -1.136231080546E-01
H55  3.433797869442E-01 -1.379647126661E-01 -7.517702533856E-02
H56 -3.433797869442E-01  1.379647126661E-01  7.517702533856E-02
H57 -2.894797213442E-01  1.284968138026E-01  2.644314348197E-01
H58  2.894797213442E-01 -1.284968138026E-01 -2.644314348197E-01
H59 -3.082447392390E-01  3.004806587827E-01  4.364842435255E-01
H60  3.082447392390E-01 -3.004806587827E-01 -4.364842435255E-01


#===END

data_OPT_STEP_80

_symmetry_space_group_name_H-M 'P 1'
_cell_length_a      7.85594268
_cell_length_b      6.30090368
_cell_length_c     13.18165658
_cell_angle_alpha   94.729904
_cell_angle_beta   99.351912
_cell_angle_gamma   90.385744

loop_
_atom_site_label
_atom_site_fract_x
_atom_site_fract_y
_atom_site_fract_z
C1  1.333731801661E-01  5.436897453843E-02  3.794074840623E-01
C2 -1.333731801661E-01 -5.436897453843E-02 -3.794074840623E-01
C3  1.490144649657E-01  1.672879057651E-01  2.975445078808E-01
C4 -1.490144649657E-01 -1.672879057651E-01 -2.975445078808E-01
C5  8.715266909726E-02  8.075841402127E-02  1.940994854564E-01
C6 -8.715266909726E-02 -8.075841402127E-02 -1.940994854564E-01
C7  1.012882375037E-01  1.918625215457E-01  1.090665589343E-01
C8 -1.012882375037E-01 -1.918625215457E-01 -1.090665589343E-01
C9  3.981324214274E-02  1.052207077529E-01  7.805638406897E-03
C10 -3.981324214274E-02 -1.052207077529E-01 -7.805638406897E-03
C11  5.356508506434E-02  2.164534810728E-01 -7.881007479755E-02
C12 -5.356508506434E-02 -2.164534810728E-01  7.881007479755E-02
C13  7.702431864266E-03 -1.297625911576E-01  1.784254641947E-01
C14 -7.702431864266E-03  1.297625911576E-01 -1.784254641947E-01
C15 -5.425189398456E-03 -2.421477828110E-01  2.669069760091E-01
C16  5.425189398456E-03  2.421477828110E-01 -2.669069760091E-01
C17  5.525128270998E-02 -1.533497049335E-01  3.638059766578E-01
C18 -5.525128270998E-02  1.533497049335E-01 -3.638059766578E-01
H19  1.802344229680E-01  1.215994503448E-01  4.574238748923E-01
H20 -1.802344229680E-01 -1.215994503448E-01 -4.574238748923E-01
H21  2.081833123378E-01  3.252518394068E-01  3.092613022358E-01
H22 -2.081833123378E-01 -3.252518394068E-01 -3.092613022358E-01
H23  1.605829292821E-01  3.498286587319E-01  1.207620332201E-01
H24 -1.605829292821E-01 -3.498286587319E-01 -1.207620332201E-01
H25  1.133574272772E-01  3.741074903798E-01 -6.719625015712E-02
H26 -1.133574272772E-01 -3.741074903798E-01  6.719625015712E-02
H27 -6.505804081600E-02 -3.997093967900E-01  2.552603699498E-01
H28  6.505804081600E-02  3.997093967900E-01 -2.552603699498E-01
H29  4.373123095665E-02 -2.402242893378E-01  4.300702938281E-01
H30 -4.373123095665E-02  2.402242893378E-01 -4.300702938281E-01
C31 -4.313770358083E-01 -4.156991602375E-01  3.789414083635E-01
C32  4.313770358083E-01  4.156991602375E-01 -3.789414083635E-01
C33 -4.936712780065E-01 -3.120489812461E-01  2.944392516991E-01
C34  4.936712780065E-01  3.120489812461E-01 -2.944392516991E-01
C35 -4.853497692553E-01 -4.056494891864E-01  1.927304838481E-01
C36  4.853497692553E-01  4.056494891864E-01 -1.927304838481E-01
C37  4.528494271229E-01 -3.033320566035E-01  1.052243585194E-01
C38 -4.528494271229E-01  3.033320566035E-01 -1.052243585194E-01
C39  4.622294406470E-01 -3.961422671350E-01  5.587066133123E-03
C40 -4.622294406470E-01  3.961422671350E-01 -5.587066133123E-03
C41  4.002252252153E-01 -2.935600408834E-01 -8.351634204834E-02
C42 -4.002252252153E-01  2.935600408834E-01  8.351634204834E-02
C43 -4.098877827221E-01  3.865621718745E-01  1.815517819031E-01
C44  4.098877827221E-01 -3.865621718745E-01 -1.815517819031E-01
C45 -3.464269398733E-01  2.839243122661E-01  2.727140000109E-01
C46  3.464269398733E-01 -2.839243122661E-01 -2.727140000109E-01
C47 -3.567728703715E-01  3.795365074497E-01  3.679179098628E-01
C48  3.567728703715E-01 -3.795365074497E-01 -3.679179098628E-01
H49 -4.385743638309E-01 -3.434074597023E-01  4.556214099427E-01
H50  4.385743638309E-01  3.434074597023E-01 -4.556214099427E-01
H51  4.494219572989E-01 -1.566174205694E-01  3.028918380322E-01
H52 -4.494219572989E-01  1.566174205694E-01 -3.028918380322E-01
H53  3.960835175520E-01 -1.477069690295E-01  1.136226175919E-01
H54 -3.960835175520E-01  1.477069690295E-01 -1.136226175919E-01
H55  3.433757283480E-01 -1.379645991881E-01 -7.517825836490E-02
H56 -3.433757283480E-01  1.379645991881E-01  7.517825836490E-02
H57 -2.894790638891E-01  1.284962329052E-01  2.644296672004E-01
H58  2.894790638891E-01 -1.284962329052E-01 -2.644296672004E-01
H59 -3.082453709437E-01  3.004821468861E-01  4.364852741551E-01
H60  3.082453709437E-01 -3.004821468861E-01 -4.364852741551E-01


#===END

data_OPT_STEP_81

_symmetry_space_group_name_H-M 'P 1'
_cell_length_a      7.85593892
_cell_length_b      6.30090753
_cell_length_c     13.18163426
_cell_angle_alpha   94.730005
_cell_angle_beta   99.351766
_cell_angle_gamma   90.385535

loop_
_atom_site_label
_atom_site_fract_x
_atom_site_fract_y
_atom_site_fract_z
C1  1.333738109931E-01  5.436824229612E-02  3.794071982651E-01
C2 -1.333738109931E-01 -5.436824229612E-02 -3.794071982651E-01
C3  1.490157778488E-01  1.672897143818E-01  2.975442040297E-01
C4 -1.490157778488E-01 -1.672897143818E-01 -2.975442040297E-01
C5  8.715670085338E-02  8.075781135090E-02  1.941010928403E-01
C6 -8.715670085338E-02 -8.075781135090E-02 -1.941010928403E-01
C7  1.012911204005E-01  1.918630352173E-01  1.090680589777E-01
C8 -1.012911204005E-01 -1.918630352173E-01 -1.090680589777E-01
C9  3.981435048063E-02  1.052200023732E-01  7.806339006674E-03
C10 -3.981435048063E-02 -1.052200023732E-01 -7.806339006674E-03
C11  5.356606951096E-02  2.164529817204E-01 -7.881070839631E-02
C12 -5.356606951096E-02 -2.164529817204E-01  7.881070839631E-02
C13  7.706012673470E-03 -1.297630884765E-01  1.784260977390E-01
C14 -7.706012673470E-03  1.297630884765E-01 -1.784260977390E-01
C15 -5.428317738606E-03 -2.421476032650E-01  2.669079271406E-01
C16  5.428317738606E-03  2.421476032650E-01 -2.669079271406E-01
C17  5.525159063889E-02 -1.533509381737E-01  3.638061973480E-01
C18 -5.525159063889E-02  1.533509381737E-01 -3.638061973480E-01
H19  1.802357255775E-01  1.215985957101E-01  4.574220093947E-01
H20 -1.802357255775E-01 -1.215985957101E-01 -4.574220093947E-01
H21  2.081866816550E-01  3.252541780381E-01  3.092605256307E-01
H22 -2.081866816550E-01 -3.252541780381E-01 -3.092605256307E-01
H23  1.605942890850E-01  3.498249888804E-01  1.207618648345E-01
H24 -1.605942890850E-01 -3.498249888804E-01 -1.207618648345E-01
H25  1.133602084516E-01  3.741061510794E-01 -6.719638004309E-02
H26 -1.133602084516E-01 -3.741061510794E-01  6.719638004309E-02
H27 -6.506486046638E-02 -3.997081345718E-01  2.552596960113E-01
H28  6.506486046638E-02  3.997081345718E-01 -2.552596960113E-01
H29  4.373207989096E-02 -2.402256304334E-01  4.300704723326E-01
H30 -4.373207989096E-02  2.402256304334E-01 -4.300704723326E-01
C31 -4.313767143313E-01 -4.156990661309E-01  3.789396749143E-01
C32  4.313767143313E-01  4.156990661309E-01 -3.789396749143E-01
C33 -4.936700900012E-01 -3.120490160073E-01  2.944398565899E-01
C34  4.936700900012E-01  3.120490160073E-01 -2.944398565899E-01
C35 -4.853493896252E-01 -4.056488921449E-01  1.927311295034E-01
C36  4.853493896252E-01  4.056488921449E-01 -1.927311295034E-01
C37  4.528507143278E-01 -3.033320665993E-01  1.052249139496E-01
C38 -4.528507143278E-01  3.033320665993E-01 -1.052249139496E-01
C39  4.622310049359E-01 -3.961416719249E-01  5.587537819607E-03
C40 -4.622310049359E-01  3.961416719249E-01 -5.587537819607E-03
C41  4.002239046962E-01 -2.935614422313E-01 -8.351756366587E-02
C42 -4.002239046962E-01  2.935614422313E-01  8.351756366587E-02
C43 -4.098873078531E-01  3.865637268963E-01  1.815525199914E-01
C44  4.098873078531E-01 -3.865637268963E-01 -1.815525199914E-01
C45 -3.464285683922E-01  2.839235793257E-01  2.727165527444E-01
C46  3.464285683922E-01 -2.839235793257E-01 -2.727165527444E-01
C47 -3.567707035312E-01  3.795368036426E-01  3.679178920675E-01
C48  3.567707035312E-01 -3.795368036426E-01 -3.679178920675E-01
H49 -4.385681935542E-01 -3.434057873720E-01  4.556172963729E-01
H50  4.385681935542E-01  3.434057873720E-01 -4.556172963729E-01
H51  4.494223448468E-01 -1.566190868501E-01  3.028908596605E-01
H52 -4.494223448468E-01  1.566190868501E-01 -3.028908596605E-01
H53  3.960844294083E-01 -1.477076529215E-01  1.136228550759E-01
H54 -3.960844294083E-01  1.477076529215E-01 -1.136228550759E-01
H55  3.433784575379E-01 -1.379651531896E-01 -7.517747367446E-02
H56 -3.433784575379E-01  1.379651531896E-01  7.517747367446E-02
H57 -2.894793624173E-01  1.284975108545E-01  2.644309093423E-01
H58  2.894793624173E-01 -1.284975108545E-01 -2.644309093423E-01
H59 -3.082453348974E-01  3.004807037549E-01  4.364842764779E-01
H60  3.082453348974E-01 -3.004807037549E-01 -4.364842764779E-01


#===END

data_OPT_STEP_82

_symmetry_space_group_name_H-M 'P 1'
_cell_length_a      7.85593892
_cell_length_b      6.30090753
_cell_length_c     13.18163426
_cell_angle_alpha   94.730005
_cell_angle_beta   99.351766
_cell_angle_gamma   90.385535

loop_
_atom_site_label
_atom_site_fract_x
_atom_site_fract_y
_atom_site_fract_z
C1  1.333738109931E-01  5.436824229612E-02  3.794071982651E-01
C2 -1.333738109931E-01 -5.436824229612E-02 -3.794071982651E-01
C3  1.490157778488E-01  1.672897143818E-01  2.975442040297E-01
C4 -1.490157778488E-01 -1.672897143818E-01 -2.975442040297E-01
C5  8.715670085338E-02  8.075781135090E-02  1.941010928403E-01
C6 -8.715670085338E-02 -8.075781135090E-02 -1.941010928403E-01
C7  1.012911204005E-01  1.918630352173E-01  1.090680589777E-01
C8 -1.012911204005E-01 -1.918630352173E-01 -1.090680589777E-01
C9  3.981435048063E-02  1.052200023732E-01  7.806339006674E-03
C10 -3.981435048063E-02 -1.052200023732E-01 -7.806339006674E-03
C11  5.356606951096E-02  2.164529817204E-01 -7.881070839631E-02
C12 -5.356606951096E-02 -2.164529817204E-01  7.881070839631E-02
C13  7.706012673470E-03 -1.297630884765E-01  1.784260977390E-01
C14 -7.706012673470E-03  1.297630884765E-01 -1.784260977390E-01
C15 -5.428317738606E-03 -2.421476032650E-01  2.669079271406E-01
C16  5.428317738606E-03  2.421476032650E-01 -2.669079271406E-01
C17  5.525159063889E-02 -1.533509381737E-01  3.638061973480E-01
C18 -5.525159063889E-02  1.533509381737E-01 -3.638061973480E-01
H19  1.802357255775E-01  1.215985957101E-01  4.574220093947E-01
H20 -1.802357255775E-01 -1.215985957101E-01 -4.574220093947E-01
H21  2.081866816550E-01  3.252541780381E-01  3.092605256307E-01
H22 -2.081866816550E-01 -3.252541780381E-01 -3.092605256307E-01
H23  1.605942890850E-01  3.498249888804E-01  1.207618648345E-01
H24 -1.605942890850E-01 -3.498249888804E-01 -1.207618648345E-01
H25  1.133602084516E-01  3.741061510794E-01 -6.719638004309E-02
H26 -1.133602084516E-01 -3.741061510794E-01  6.719638004309E-02
H27 -6.506486046638E-02 -3.997081345718E-01  2.552596960113E-01
H28  6.506486046638E-02  3.997081345718E-01 -2.552596960113E-01
H29  4.373207989096E-02 -2.402256304334E-01  4.300704723326E-01
H30 -4.373207989096E-02  2.402256304334E-01 -4.300704723326E-01
C31 -4.313767143313E-01 -4.156990661309E-01  3.789396749143E-01
C32  4.313767143313E-01  4.156990661309E-01 -3.789396749143E-01
C33 -4.936700900012E-01 -3.120490160073E-01  2.944398565899E-01
C34  4.936700900012E-01  3.120490160073E-01 -2.944398565899E-01
C35 -4.853493896252E-01 -4.056488921449E-01  1.927311295034E-01
C36  4.853493896252E-01  4.056488921449E-01 -1.927311295034E-01
C37  4.528507143278E-01 -3.033320665993E-01  1.052249139496E-01
C38 -4.528507143278E-01  3.033320665993E-01 -1.052249139496E-01
C39  4.622310049359E-01 -3.961416719249E-01  5.587537819607E-03
C40 -4.622310049359E-01  3.961416719249E-01 -5.587537819607E-03
C41  4.002239046962E-01 -2.935614422313E-01 -8.351756366587E-02
C42 -4.002239046962E-01  2.935614422313E-01  8.351756366587E-02
C43 -4.098873078531E-01  3.865637268963E-01  1.815525199914E-01
C44  4.098873078531E-01 -3.865637268963E-01 -1.815525199914E-01
C45 -3.464285683922E-01  2.839235793257E-01  2.727165527444E-01
C46  3.464285683922E-01 -2.839235793257E-01 -2.727165527444E-01
C47 -3.567707035312E-01  3.795368036426E-01  3.679178920675E-01
C48  3.567707035312E-01 -3.795368036426E-01 -3.679178920675E-01
H49 -4.385681935542E-01 -3.434057873720E-01  4.556172963729E-01
H50  4.385681935542E-01  3.434057873720E-01 -4.556172963729E-01
H51  4.494223448468E-01 -1.566190868501E-01  3.028908596605E-01
H52 -4.494223448468E-01  1.566190868501E-01 -3.028908596605E-01
H53  3.960844294083E-01 -1.477076529215E-01  1.136228550759E-01
H54 -3.960844294083E-01  1.477076529215E-01 -1.136228550759E-01
H55  3.433784575379E-01 -1.379651531896E-01 -7.517747367446E-02
H56 -3.433784575379E-01  1.379651531896E-01  7.517747367446E-02
H57 -2.894793624173E-01  1.284975108545E-01  2.644309093423E-01
H58  2.894793624173E-01 -1.284975108545E-01 -2.644309093423E-01
H59 -3.082453348974E-01  3.004807037549E-01  4.364842764779E-01
H60  3.082453348974E-01 -3.004807037549E-01 -4.364842764779E-01


#===END
