###############################################################################
#
#                    CRYSTAL17 CIF FILE
#
###############################################################################

data_OPT_STEP_1

_symmetry_space_group_name_H-M 'P 1'
_cell_length_a      7.90000000
_cell_length_b      6.06000000
_cell_length_c     16.01000000
_cell_angle_alpha  101.900002
_cell_angle_beta  112.599998
_cell_angle_gamma   85.800003

loop_
_atom_site_label
_atom_site_fract_x
_atom_site_fract_y
_atom_site_fract_z
C1  1.265966148678E-01  4.691958795802E-02  4.060599123264E-01
H2  1.713907554165E-01  1.185442575485E-01  4.790241549392E-01
C3  1.521694223227E-01  1.635296012301E-01  3.477381956720E-01
C4  4.030590576799E-02 -1.700292923258E-01  3.719199803030E-01
H5  2.154072862990E-01  3.293889040630E-01  3.728433543779E-01
C6  9.420168736475E-02  7.195731379409E-02  2.510657284516E-01
H7  2.048209299191E-02 -2.603627885592E-01  4.193125098501E-01
C8 -1.823531441759E-02 -2.632489634980E-01  2.805438063607E-01
C9  1.203643723505E-01  1.866245763188E-01  1.906046719640E-01
C10  5.963533019771E-03 -1.475165827674E-01  2.163762992262E-01
H11 -8.434806200682E-02 -4.271454802213E-01  2.547370390180E-01
H12  1.873147763080E-01  3.502272884775E-01  2.167633257109E-01
C13  6.151857334985E-02  9.652204074177E-02  9.535353760954E-02
C14 -5.277252300843E-02 -2.380471468214E-01  1.229995729381E-01
C15  8.719775266366E-02  2.120369958915E-01  3.397640892759E-02
C16 -2.800526791230E-02 -1.225039319488E-01  6.043752903458E-02
H17 -1.192015476065E-01 -4.019076452421E-01  9.692552669137E-02
H18  1.542696656641E-01  3.755305810475E-01  6.032734388727E-02
C19  2.800526791230E-02  1.225039319488E-01 -6.043752903458E-02
C20 -8.719775266366E-02 -2.120369958915E-01 -3.397640892759E-02
C21  5.277252300843E-02  2.380471468214E-01 -1.229995729381E-01
C22 -6.151857334985E-02 -9.652204074177E-02 -9.535353760954E-02
H23 -1.542696656641E-01 -3.755305810475E-01 -6.032734388727E-02
H24  1.192015476065E-01  4.019076452421E-01 -9.692552669137E-02
C25 -5.963533019771E-03  1.475165827674E-01 -2.163762992262E-01
C26 -1.203643723505E-01 -1.866245763188E-01 -1.906046719640E-01
C27  1.823531441759E-02  2.632489634980E-01 -2.805438063607E-01
C28 -9.420168736475E-02 -7.195731379409E-02 -2.510657284516E-01
H29 -1.873147763080E-01 -3.502272884775E-01 -2.167633257109E-01
H30  8.434806200682E-02  4.271454802213E-01 -2.547370390180E-01
C31 -4.030590576799E-02  1.700292923258E-01 -3.719199803030E-01
C32 -1.521694223227E-01 -1.635296012301E-01 -3.477381956719E-01
H33 -2.048209299191E-02  2.603627885592E-01 -4.193125098501E-01
C34 -1.265966148678E-01 -4.691958795802E-02 -4.060599123264E-01
H35 -2.154072862990E-01 -3.293889040630E-01 -3.728433543779E-01
H36 -1.713907554165E-01 -1.185442575485E-01 -4.790241549392E-01
C37 -4.463167840237E-01 -4.308521405804E-01  3.973675554638E-01
H38 -4.599013345905E-01 -3.562938801971E-01  4.620758119320E-01
C39  4.972104615990E-01 -3.138016785462E-01  3.273789437663E-01
C40 -3.683764419030E-01  3.498369649040E-01  3.871169276701E-01
H41  4.390059086110E-01 -1.472116118955E-01  3.360899794384E-01
C42 -4.865051053986E-01 -4.080837469652E-01  2.409498340384E-01
H43 -3.239643936936E-01  2.609216438787E-01  4.440720554482E-01
C44 -3.495797722449E-01  2.538367326452E-01  3.066995176106E-01
C45  4.576410126380E-01 -2.962249600819E-01  1.675258776216E-01
C46 -4.078122575692E-01  3.691372906788E-01  2.308677115641E-01
H47 -2.898894973604E-01  8.807237944064E-02  2.983976730832E-01
H48  3.984303254134E-01 -1.297357940728E-01  1.744560445311E-01
C49  4.769324699134E-01 -3.935976029985E-01  8.342210630350E-02
C50 -3.888992870046E-01  2.720213430680E-01  1.489160660327E-01
C51  4.230030377508E-01 -2.840551285088E-01  8.594658115442E-03
C52 -4.440869778350E-01  3.834677579808E-01  7.382304262667E-02
H53 -3.296365019204E-01  1.055153626698E-01  1.420761572146E-01
H54  3.635904045342E-01 -1.174052902324E-01  1.430233727859E-02
C55  4.440869778350E-01 -3.834677579808E-01 -7.382304262667E-02
C56 -4.230030377508E-01  2.840551285088E-01 -8.594658115442E-03
C57  3.888992870046E-01 -2.720213430680E-01 -1.489160660327E-01
C58 -4.769324699134E-01  3.935976029985E-01 -8.342210630350E-02
H59 -3.635904045342E-01  1.174052902324E-01 -1.430233727859E-02
H60  3.296365019204E-01 -1.055153626698E-01 -1.420761572146E-01
C61  4.078122575692E-01 -3.691372906788E-01 -2.308677115641E-01
C62 -4.576410126380E-01  2.962249600819E-01 -1.675258776216E-01
C63  3.495797722449E-01 -2.538367326452E-01 -3.066995176106E-01
C64  4.865051053986E-01  4.080837469652E-01 -2.409498340384E-01
H65 -3.984303254134E-01  1.297357940728E-01 -1.744560445311E-01
H66  2.898894973604E-01 -8.807237944064E-02 -2.983976730832E-01
C67  3.683764419030E-01 -3.498369649040E-01 -3.871169276701E-01
C68 -4.972104615990E-01  3.138016785462E-01 -3.273789437663E-01
H69  3.239643936936E-01 -2.609216438787E-01 -4.440720554482E-01
C70  4.463167840237E-01  4.308521405804E-01 -3.973675554638E-01
H71 -4.390059086110E-01  1.472116118955E-01 -3.360899794384E-01
H72  4.599013345905E-01  3.562938801971E-01 -4.620758119320E-01


#===END

data_OPT_STEP_2

_symmetry_space_group_name_H-M 'P 1'
_cell_length_a      7.90000000
_cell_length_b      6.06000000
_cell_length_c     16.01000000
_cell_angle_alpha  101.900002
_cell_angle_beta  112.599998
_cell_angle_gamma   85.800003

loop_
_atom_site_label
_atom_site_fract_x
_atom_site_fract_y
_atom_site_fract_z
C1  1.265966148678E-01  4.691958795802E-02  4.060599123264E-01
H2  1.713907554165E-01  1.185442575485E-01  4.790241549392E-01
C3  1.521694223227E-01  1.635296012301E-01  3.477381956720E-01
C4  4.030590576799E-02 -1.700292923258E-01  3.719199803030E-01
H5  2.154072862990E-01  3.293889040630E-01  3.728433543779E-01
C6  9.420168736475E-02  7.195731379409E-02  2.510657284516E-01
H7  2.048209299191E-02 -2.603627885592E-01  4.193125098501E-01
C8 -1.823531441759E-02 -2.632489634980E-01  2.805438063607E-01
C9  1.203643723505E-01  1.866245763188E-01  1.906046719640E-01
C10  5.963533019771E-03 -1.475165827674E-01  2.163762992262E-01
H11 -8.434806200682E-02 -4.271454802213E-01  2.547370390180E-01
H12  1.873147763080E-01  3.502272884775E-01  2.167633257109E-01
C13  6.151857334985E-02  9.652204074177E-02  9.535353760954E-02
C14 -5.277252300843E-02 -2.380471468214E-01  1.229995729381E-01
C15  8.719775266366E-02  2.120369958915E-01  3.397640892759E-02
C16 -2.800526791230E-02 -1.225039319488E-01  6.043752903458E-02
H17 -1.192015476065E-01 -4.019076452421E-01  9.692552669137E-02
H18  1.542696656641E-01  3.755305810475E-01  6.032734388727E-02
C19  2.800526791230E-02  1.225039319488E-01 -6.043752903458E-02
C20 -8.719775266366E-02 -2.120369958915E-01 -3.397640892759E-02
C21  5.277252300843E-02  2.380471468214E-01 -1.229995729381E-01
C22 -6.151857334985E-02 -9.652204074177E-02 -9.535353760954E-02
H23 -1.542696656641E-01 -3.755305810475E-01 -6.032734388727E-02
H24  1.192015476065E-01  4.019076452421E-01 -9.692552669137E-02
C25 -5.963533019771E-03  1.475165827674E-01 -2.163762992262E-01
C26 -1.203643723505E-01 -1.866245763188E-01 -1.906046719640E-01
C27  1.823531441759E-02  2.632489634980E-01 -2.805438063607E-01
C28 -9.420168736475E-02 -7.195731379409E-02 -2.510657284516E-01
H29 -1.873147763080E-01 -3.502272884775E-01 -2.167633257109E-01
H30  8.434806200682E-02  4.271454802213E-01 -2.547370390180E-01
C31 -4.030590576799E-02  1.700292923258E-01 -3.719199803030E-01
C32 -1.521694223227E-01 -1.635296012301E-01 -3.477381956719E-01
H33 -2.048209299191E-02  2.603627885592E-01 -4.193125098501E-01
C34 -1.265966148678E-01 -4.691958795802E-02 -4.060599123264E-01
H35 -2.154072862990E-01 -3.293889040630E-01 -3.728433543779E-01
H36 -1.713907554165E-01 -1.185442575485E-01 -4.790241549392E-01
C37 -4.463167840237E-01 -4.308521405804E-01  3.973675554638E-01
H38 -4.599013345905E-01 -3.562938801971E-01  4.620758119320E-01
C39  4.972104615990E-01 -3.138016785462E-01  3.273789437663E-01
C40 -3.683764419030E-01  3.498369649040E-01  3.871169276701E-01
H41  4.390059086110E-01 -1.472116118955E-01  3.360899794384E-01
C42 -4.865051053986E-01 -4.080837469652E-01  2.409498340384E-01
H43 -3.239643936936E-01  2.609216438787E-01  4.440720554482E-01
C44 -3.495797722449E-01  2.538367326452E-01  3.066995176106E-01
C45  4.576410126380E-01 -2.962249600819E-01  1.675258776216E-01
C46 -4.078122575692E-01  3.691372906788E-01  2.308677115641E-01
H47 -2.898894973604E-01  8.807237944064E-02  2.983976730832E-01
H48  3.984303254134E-01 -1.297357940728E-01  1.744560445311E-01
C49  4.769324699134E-01 -3.935976029985E-01  8.342210630350E-02
C50 -3.888992870046E-01  2.720213430680E-01  1.489160660327E-01
C51  4.230030377508E-01 -2.840551285088E-01  8.594658115442E-03
C52 -4.440869778350E-01  3.834677579808E-01  7.382304262667E-02
H53 -3.296365019204E-01  1.055153626698E-01  1.420761572146E-01
H54  3.635904045342E-01 -1.174052902324E-01  1.430233727859E-02
C55  4.440869778350E-01 -3.834677579808E-01 -7.382304262667E-02
C56 -4.230030377508E-01  2.840551285088E-01 -8.594658115442E-03
C57  3.888992870046E-01 -2.720213430680E-01 -1.489160660327E-01
C58 -4.769324699134E-01  3.935976029985E-01 -8.342210630350E-02
H59 -3.635904045342E-01  1.174052902324E-01 -1.430233727859E-02
H60  3.296365019204E-01 -1.055153626698E-01 -1.420761572146E-01
C61  4.078122575692E-01 -3.691372906788E-01 -2.308677115641E-01
C62 -4.576410126380E-01  2.962249600819E-01 -1.675258776216E-01
C63  3.495797722449E-01 -2.538367326452E-01 -3.066995176106E-01
C64  4.865051053986E-01  4.080837469652E-01 -2.409498340384E-01
H65 -3.984303254134E-01  1.297357940728E-01 -1.744560445311E-01
H66  2.898894973604E-01 -8.807237944064E-02 -2.983976730832E-01
C67  3.683764419030E-01 -3.498369649040E-01 -3.871169276701E-01
C68 -4.972104615990E-01  3.138016785462E-01 -3.273789437663E-01
H69  3.239643936936E-01 -2.609216438787E-01 -4.440720554482E-01
C70  4.463167840237E-01  4.308521405804E-01 -3.973675554638E-01
H71 -4.390059086110E-01  1.472116118955E-01 -3.360899794384E-01
H72  4.599013345905E-01  3.562938801971E-01 -4.620758119320E-01


#===END
