###############################################################################
#
#                    CRYSTAL17 CIF FILE
#
###############################################################################

data_OPT_STEP_1

_symmetry_space_group_name_H-M 'P 1'
_cell_length_a      7.90000000
_cell_length_b      6.06000000
_cell_length_c     16.01000000
_cell_angle_alpha  101.900002
_cell_angle_beta  112.599998
_cell_angle_gamma   85.800003

loop_
_atom_site_label
_atom_site_fract_x
_atom_site_fract_y
_atom_site_fract_z
C1  1.330252917451E-01  4.207142021211E-02  4.067321354523E-01
H2  1.821475915864E-01  1.103921985039E-01  4.801417620020E-01
C3  1.517409838444E-01  1.637956762024E-01  3.481204252625E-01
C4  4.704232300975E-02 -1.749958196599E-01  3.723327382876E-01
H5  2.145719277354E-01  3.298674916951E-01  3.736046285891E-01
C6  8.914484707192E-02  7.614369503806E-02  2.509115431984E-01
H7  3.225206838159E-02 -2.688778017385E-01  4.199865411194E-01
C8 -1.824034968608E-02 -2.630970130117E-01  2.803276572698E-01
C9  1.135819737898E-01  1.918483949850E-01  1.902408795475E-01
C10  1.217665361745E-03 -1.435218365626E-01  2.160751541508E-01
H11 -8.463880246492E-02 -4.267934020005E-01  2.541420072101E-01
H12  1.808104685613E-01  3.553561867569E-01  2.163783893713E-01
C13  5.683493519860E-02  1.003059291283E-01  9.510106320839E-02
C14 -5.845530062632E-02 -2.334004501559E-01  1.226485188663E-01
C15  8.621236514643E-02  2.126567508400E-01  3.377907654901E-02
C16 -3.185570436504E-02 -1.192739726685E-01  6.021060923849E-02
H17 -1.240578672247E-01 -3.977947866562E-01  9.668274982352E-02
H18  1.524618237125E-01  3.767140539193E-01  5.972844180382E-02
C19  3.185570436504E-02  1.192739726685E-01 -6.021060923849E-02
C20 -8.621236514643E-02 -2.126567508400E-01 -3.377907654901E-02
C21  5.845530062632E-02  2.334004501559E-01 -1.226485188663E-01
C22 -5.683493519860E-02 -1.003059291283E-01 -9.510106320839E-02
H23 -1.524618237125E-01 -3.767140539193E-01 -5.972844180382E-02
H24  1.240578672247E-01  3.977947866562E-01 -9.668274982352E-02
C25 -1.217665361745E-03  1.435218365626E-01 -2.160751541508E-01
C26 -1.135819737898E-01 -1.918483949850E-01 -1.902408795475E-01
C27  1.824034968608E-02  2.630970130117E-01 -2.803276572698E-01
C28 -8.914484707192E-02 -7.614369503806E-02 -2.509115431984E-01
H29 -1.808104685613E-01 -3.553561867569E-01 -2.163783893713E-01
H30  8.463880246492E-02  4.267934020005E-01 -2.541420072101E-01
C31 -4.704232300975E-02  1.749958196599E-01 -3.723327382876E-01
C32 -1.517409838444E-01 -1.637956762024E-01 -3.481204252625E-01
H33 -3.225206838159E-02  2.688778017385E-01 -4.199865411194E-01
C34 -1.330252917451E-01 -4.207142021211E-02 -4.067321354523E-01
H35 -2.145719277354E-01 -3.298674916951E-01 -3.736046285891E-01
H36 -1.821475915864E-01 -1.103921985039E-01 -4.801417620020E-01
C37 -4.463548577282E-01 -4.278237238752E-01  3.971181829498E-01
H38 -4.607429604035E-01 -3.514416497904E-01  4.614400077390E-01
C39 -4.980529398028E-01 -3.116472524224E-01  3.270878009158E-01
C40 -3.722458917276E-01  3.505207982511E-01  3.870867289113E-01
H41  4.461795781837E-01 -1.433553116082E-01  3.349543381965E-01
C42 -4.813966571175E-01 -4.096091654251E-01  2.412090516431E-01
H43 -3.309706227694E-01  2.620657928912E-01  4.440985844814E-01
C44 -3.523889179107E-01  2.512678227091E-01  3.071673940025E-01
C45  4.649175366881E-01 -2.966398300741E-01  1.683487799668E-01
C46 -4.069017839820E-01  3.651736442313E-01  2.308996585764E-01
H47 -2.945196821141E-01  8.418574249823E-02  2.998258976544E-01
H48  4.082483631752E-01 -1.287446777136E-01  1.759493801722E-01
C49  4.813307983477E-01 -3.946890672236E-01  8.387991299424E-02
C50 -3.900081962835E-01  2.669431719892E-01  1.484203089743E-01
C51  4.275003640907E-01 -2.817362053061E-01  9.972371171610E-03
C52 -4.442012198673E-01  3.799094124649E-01  7.352927157826E-02
H53 -3.335674267181E-01  9.901730934758E-02  1.408385020915E-01
H54  3.711571139996E-01 -1.137258521074E-01  1.761474896311E-02
C55  4.442012198673E-01 -3.799094124649E-01 -7.352927157826E-02
C56 -4.275003640907E-01  2.817362053061E-01 -9.972371171610E-03
C57  3.900081962835E-01 -2.669431719892E-01 -1.484203089743E-01
C58 -4.813307983477E-01  3.946890672236E-01 -8.387991299424E-02
H59 -3.711571139996E-01  1.137258521074E-01 -1.761474896311E-02
H60  3.335674267181E-01 -9.901730934758E-02 -1.408385020915E-01
C61  4.069017839820E-01 -3.651736442313E-01 -2.308996585764E-01
C62 -4.649175366881E-01  2.966398300741E-01 -1.683487799668E-01
C63  3.523889179107E-01 -2.512678227091E-01 -3.071673940025E-01
C64  4.813966571175E-01  4.096091654251E-01 -2.412090516431E-01
H65 -4.082483631752E-01  1.287446777136E-01 -1.759493801722E-01
H66  2.945196821141E-01 -8.418574249823E-02 -2.998258976544E-01
C67  3.722458917276E-01 -3.505207982511E-01 -3.870867289113E-01
C68  4.980529398028E-01  3.116472524224E-01 -3.270878009158E-01
H69  3.309706227694E-01 -2.620657928912E-01 -4.440985844814E-01
C70  4.463548577282E-01  4.278237238752E-01 -3.971181829498E-01
H71 -4.461795781837E-01  1.433553116082E-01 -3.349543381965E-01
H72  4.607429604035E-01  3.514416497904E-01 -4.614400077390E-01


#===END

data_OPT_STEP_2

_symmetry_space_group_name_H-M 'P 1'
_cell_length_a      7.90000000
_cell_length_b      6.06000000
_cell_length_c     16.01000000
_cell_angle_alpha  101.900002
_cell_angle_beta  112.599998
_cell_angle_gamma   85.800003

loop_
_atom_site_label
_atom_site_fract_x
_atom_site_fract_y
_atom_site_fract_z
C1  1.330252917451E-01  4.207142021211E-02  4.067321354523E-01
H2  1.821475915864E-01  1.103921985039E-01  4.801417620020E-01
C3  1.517409838444E-01  1.637956762024E-01  3.481204252625E-01
C4  4.704232300975E-02 -1.749958196599E-01  3.723327382876E-01
H5  2.145719277354E-01  3.298674916951E-01  3.736046285891E-01
C6  8.914484707192E-02  7.614369503806E-02  2.509115431984E-01
H7  3.225206838159E-02 -2.688778017385E-01  4.199865411194E-01
C8 -1.824034968608E-02 -2.630970130117E-01  2.803276572698E-01
C9  1.135819737898E-01  1.918483949850E-01  1.902408795475E-01
C10  1.217665361745E-03 -1.435218365626E-01  2.160751541508E-01
H11 -8.463880246492E-02 -4.267934020005E-01  2.541420072101E-01
H12  1.808104685613E-01  3.553561867569E-01  2.163783893713E-01
C13  5.683493519860E-02  1.003059291283E-01  9.510106320839E-02
C14 -5.845530062632E-02 -2.334004501559E-01  1.226485188663E-01
C15  8.621236514643E-02  2.126567508400E-01  3.377907654901E-02
C16 -3.185570436504E-02 -1.192739726685E-01  6.021060923849E-02
H17 -1.240578672247E-01 -3.977947866562E-01  9.668274982352E-02
H18  1.524618237125E-01  3.767140539193E-01  5.972844180382E-02
C19  3.185570436504E-02  1.192739726685E-01 -6.021060923849E-02
C20 -8.621236514643E-02 -2.126567508400E-01 -3.377907654901E-02
C21  5.845530062632E-02  2.334004501559E-01 -1.226485188663E-01
C22 -5.683493519860E-02 -1.003059291283E-01 -9.510106320839E-02
H23 -1.524618237125E-01 -3.767140539193E-01 -5.972844180382E-02
H24  1.240578672247E-01  3.977947866562E-01 -9.668274982352E-02
C25 -1.217665361745E-03  1.435218365626E-01 -2.160751541508E-01
C26 -1.135819737898E-01 -1.918483949850E-01 -1.902408795475E-01
C27  1.824034968608E-02  2.630970130117E-01 -2.803276572698E-01
C28 -8.914484707192E-02 -7.614369503806E-02 -2.509115431984E-01
H29 -1.808104685613E-01 -3.553561867569E-01 -2.163783893713E-01
H30  8.463880246492E-02  4.267934020005E-01 -2.541420072101E-01
C31 -4.704232300975E-02  1.749958196599E-01 -3.723327382876E-01
C32 -1.517409838444E-01 -1.637956762024E-01 -3.481204252625E-01
H33 -3.225206838159E-02  2.688778017385E-01 -4.199865411194E-01
C34 -1.330252917451E-01 -4.207142021211E-02 -4.067321354523E-01
H35 -2.145719277354E-01 -3.298674916951E-01 -3.736046285891E-01
H36 -1.821475915864E-01 -1.103921985039E-01 -4.801417620020E-01
C37 -4.463548577282E-01 -4.278237238752E-01  3.971181829498E-01
H38 -4.607429604035E-01 -3.514416497904E-01  4.614400077390E-01
C39 -4.980529398028E-01 -3.116472524224E-01  3.270878009158E-01
C40 -3.722458917276E-01  3.505207982511E-01  3.870867289113E-01
H41  4.461795781837E-01 -1.433553116082E-01  3.349543381965E-01
C42 -4.813966571175E-01 -4.096091654251E-01  2.412090516431E-01
H43 -3.309706227694E-01  2.620657928912E-01  4.440985844814E-01
C44 -3.523889179107E-01  2.512678227091E-01  3.071673940025E-01
C45  4.649175366881E-01 -2.966398300741E-01  1.683487799668E-01
C46 -4.069017839820E-01  3.651736442313E-01  2.308996585764E-01
H47 -2.945196821141E-01  8.418574249823E-02  2.998258976544E-01
H48  4.082483631752E-01 -1.287446777136E-01  1.759493801722E-01
C49  4.813307983477E-01 -3.946890672236E-01  8.387991299424E-02
C50 -3.900081962835E-01  2.669431719892E-01  1.484203089743E-01
C51  4.275003640907E-01 -2.817362053061E-01  9.972371171610E-03
C52 -4.442012198673E-01  3.799094124649E-01  7.352927157826E-02
H53 -3.335674267181E-01  9.901730934758E-02  1.408385020915E-01
H54  3.711571139996E-01 -1.137258521074E-01  1.761474896311E-02
C55  4.442012198673E-01 -3.799094124649E-01 -7.352927157826E-02
C56 -4.275003640907E-01  2.817362053061E-01 -9.972371171610E-03
C57  3.900081962835E-01 -2.669431719892E-01 -1.484203089743E-01
C58 -4.813307983477E-01  3.946890672236E-01 -8.387991299424E-02
H59 -3.711571139996E-01  1.137258521074E-01 -1.761474896311E-02
H60  3.335674267181E-01 -9.901730934758E-02 -1.408385020915E-01
C61  4.069017839820E-01 -3.651736442313E-01 -2.308996585764E-01
C62 -4.649175366881E-01  2.966398300741E-01 -1.683487799668E-01
C63  3.523889179107E-01 -2.512678227091E-01 -3.071673940025E-01
C64  4.813966571175E-01  4.096091654251E-01 -2.412090516431E-01
H65 -4.082483631752E-01  1.287446777136E-01 -1.759493801722E-01
H66  2.945196821141E-01 -8.418574249823E-02 -2.998258976544E-01
C67  3.722458917276E-01 -3.505207982511E-01 -3.870867289113E-01
C68  4.980529398028E-01  3.116472524224E-01 -3.270878009158E-01
H69  3.309706227694E-01 -2.620657928912E-01 -4.440985844814E-01
C70  4.463548577282E-01  4.278237238752E-01 -3.971181829498E-01
H71 -4.461795781837E-01  1.433553116082E-01 -3.349543381965E-01
H72  4.607429604035E-01  3.514416497904E-01 -4.614400077390E-01


#===END
