###############################################################################
#
#                    CRYSTAL17 CIF FILE
#
###############################################################################

data_OPT_STEP_1

_symmetry_space_group_name_H-M 'P 1'
_cell_length_a      7.90000000
_cell_length_b      6.06000000
_cell_length_c     16.01000000
_cell_angle_alpha  101.900002
_cell_angle_beta  112.599998
_cell_angle_gamma   85.800003

loop_
_atom_site_label
_atom_site_fract_x
_atom_site_fract_y
_atom_site_fract_z
C1  1.224430586984E-01  3.641093746823E-02  4.053564019230E-01
H2  1.668740472048E-01  1.040844008704E-01  4.786883412206E-01
C3  1.527351439359E-01  1.567759801064E-01  3.492896984189E-01
C4  3.192000775567E-02 -1.779602942843E-01  3.688269608357E-01
H5  2.187704558983E-01  3.209637298275E-01  3.768909520727E-01
C6  9.597425458989E-02  7.188815467725E-02  2.520172229249E-01
H7  8.631078521352E-03 -2.707126715929E-01  4.145831674020E-01
C8 -2.542495085676E-02 -2.650991427917E-01  2.770394273193E-01
C9  1.254213413567E-01  1.891455023427E-01  1.928441384737E-01
C10  4.397985331413E-03 -1.455441222386E-01  2.154903550886E-01
H11 -9.421478854187E-02 -4.272563568997E-01  2.487114656354E-01
H12  1.939776846175E-01  3.517230834722E-01  2.205455836269E-01
C13  6.687718756952E-02  1.028791533956E-01  9.695768737467E-02
C14 -5.264872871691E-02 -2.325150944685E-01  1.221700146403E-01
C15  9.185854814725E-02  2.182278663783E-01  3.502085245816E-02
C16 -2.399660884890E-02 -1.153615689049E-01  6.134575509569E-02
H17 -1.209959244690E-01 -3.952542334777E-01  9.454274280812E-02
H18  1.586344204222E-01  3.819145567461E-01  6.100014441033E-02
C19  3.144165552884E-02  1.281596013477E-01 -5.976466899669E-02
C20 -8.255720811589E-02 -2.057885521683E-01 -3.266093017510E-02
C21  5.219781782815E-02  2.416543643727E-01 -1.241085055995E-01
C22 -5.685775923680E-02 -9.159037284420E-02 -9.406082368891E-02
H23 -1.497876609632E-01 -3.691859914505E-01 -5.866491046381E-02
H24  1.165965966882E-01  4.067299123847E-01 -9.970352629158E-02
C25 -8.023766488265E-03  1.475465810418E-01 -2.174679707628E-01
C26 -1.160913947625E-01 -1.859172442171E-01 -1.888116424429E-01
C27  1.119165665400E-02  2.610545957017E-01 -2.835778352439E-01
C28 -9.291869243337E-02 -7.398935386365E-02 -2.506328685469E-01
H29 -1.815436217637E-01 -3.504902228210E-01 -2.133411012827E-01
H30  7.473593882285E-02  4.266116634247E-01 -2.595849200936E-01
C31 -4.822610418503E-02  1.635601064403E-01 -3.746522688131E-01
C32 -1.513946557933E-01 -1.706082125486E-01 -3.468985878435E-01
H33 -3.166407464715E-02  2.526014508283E-01 -4.232942158758E-01
C34 -1.301752063406E-01 -5.601665003543E-02 -4.069160358106E-01
H35 -2.118569624271E-01 -3.381076289105E-01 -3.702097167611E-01
H36 -1.750359392462E-01 -1.305065948052E-01 -4.796034153168E-01
C37 -4.448667563191E-01 -4.260445388659E-01  3.975700380716E-01
H38 -4.584918356557E-01 -3.490419972707E-01  4.620227467794E-01
C39  4.988367284786E-01 -3.126823459788E-01  3.265817825002E-01
C40 -3.668661557904E-01  3.543984293321E-01  3.883361571808E-01
H41  4.405497781034E-01 -1.458067509533E-01  3.338824416426E-01
C42 -4.848316690823E-01 -4.111676185666E-01  2.406784706081E-01
H43 -3.223273101043E-01  2.678410387561E-01  4.459974615099E-01
C44 -3.483207455544E-01  2.541933216502E-01  3.081735618605E-01
C45  4.588500633631E-01 -2.998711611890E-01  1.672795206559E-01
C46 -4.067407292868E-01  3.656192924724E-01  2.311107620464E-01
H47 -2.886998229678E-01  8.810123369872E-02  3.012054399227E-01
H48  4.003742118948E-01 -1.330513448049E-01  1.744931228732E-01
C49  4.767482895493E-01 -3.972432197174E-01  8.311738915682E-02
C50 -3.891175850205E-01  2.675229891789E-01  1.487804055369E-01
C51  4.214949301253E-01 -2.849970506964E-01  8.965057229014E-03
C52 -4.448140908862E-01  3.795281038413E-01  7.355329929728E-02
H53 -3.302587758115E-01  1.008745750589E-01  1.417102876760E-01
H54  3.625966237004E-01 -1.184151214115E-01  1.613350307812E-02
C55  4.413351021864E-01 -3.814010925945E-01 -7.393221516992E-02
C56 -4.250588735343E-01  2.830373427140E-01 -9.360515123284E-03
C57  3.861598556745E-01 -2.689503044615E-01 -1.490174200053E-01
C58 -4.794026465855E-01  3.957871975254E-01 -8.336040824546E-02
H59 -3.659364987234E-01  1.165372098719E-01 -1.647468581088E-02
H60  3.266344545045E-01 -1.026384361225E-01 -1.420253246536E-01
C61  4.064231144354E-01 -3.654053290362E-01 -2.308664387440E-01
C62 -4.592514053539E-01  2.998389256660E-01 -1.671130027647E-01
C63  3.500730400748E-01 -2.527094674150E-01 -3.075428465279E-01
C64  4.859398003679E-01  4.121409300634E-01 -2.401985844289E-01
H65 -3.998500382996E-01  1.334967290385E-01 -1.742051186536E-01
H66  2.895332450908E-01 -8.710198296700E-02 -3.007158628535E-01
C67  3.713971141320E-01 -3.512331133295E-01 -3.871930623524E-01
C68 -4.949273158048E-01  3.154296256602E-01 -3.256099573422E-01
H69  3.277985445835E-01 -2.641359295491E-01 -4.446812955213E-01
C70  4.501249048023E-01  4.296426862121E-01 -3.963010051984E-01
H71 -4.360566708680E-01  1.488776438033E-01 -3.328629202928E-01
H72  4.651941168731E-01  3.534165079055E-01 -4.604861520396E-01


#===END

data_OPT_STEP_2

_symmetry_space_group_name_H-M 'P 1'
_cell_length_a      7.90000000
_cell_length_b      6.06000000
_cell_length_c     16.01000000
_cell_angle_alpha  101.900002
_cell_angle_beta  112.599998
_cell_angle_gamma   85.800003

loop_
_atom_site_label
_atom_site_fract_x
_atom_site_fract_y
_atom_site_fract_z
C1  1.224430586984E-01  3.641093746823E-02  4.053564019230E-01
H2  1.668740472048E-01  1.040844008704E-01  4.786883412206E-01
C3  1.527351439359E-01  1.567759801064E-01  3.492896984189E-01
C4  3.192000775567E-02 -1.779602942843E-01  3.688269608357E-01
H5  2.187704558983E-01  3.209637298275E-01  3.768909520727E-01
C6  9.597425458989E-02  7.188815467725E-02  2.520172229249E-01
H7  8.631078521352E-03 -2.707126715929E-01  4.145831674020E-01
C8 -2.542495085676E-02 -2.650991427917E-01  2.770394273193E-01
C9  1.254213413567E-01  1.891455023427E-01  1.928441384737E-01
C10  4.397985331413E-03 -1.455441222386E-01  2.154903550886E-01
H11 -9.421478854187E-02 -4.272563568997E-01  2.487114656354E-01
H12  1.939776846175E-01  3.517230834722E-01  2.205455836269E-01
C13  6.687718756952E-02  1.028791533956E-01  9.695768737467E-02
C14 -5.264872871691E-02 -2.325150944685E-01  1.221700146403E-01
C15  9.185854814725E-02  2.182278663783E-01  3.502085245816E-02
C16 -2.399660884890E-02 -1.153615689049E-01  6.134575509569E-02
H17 -1.209959244690E-01 -3.952542334777E-01  9.454274280812E-02
H18  1.586344204222E-01  3.819145567461E-01  6.100014441033E-02
C19  3.144165552884E-02  1.281596013477E-01 -5.976466899669E-02
C20 -8.255720811589E-02 -2.057885521683E-01 -3.266093017510E-02
C21  5.219781782815E-02  2.416543643727E-01 -1.241085055995E-01
C22 -5.685775923680E-02 -9.159037284420E-02 -9.406082368891E-02
H23 -1.497876609632E-01 -3.691859914505E-01 -5.866491046381E-02
H24  1.165965966882E-01  4.067299123847E-01 -9.970352629158E-02
C25 -8.023766488265E-03  1.475465810418E-01 -2.174679707628E-01
C26 -1.160913947625E-01 -1.859172442171E-01 -1.888116424429E-01
C27  1.119165665400E-02  2.610545957017E-01 -2.835778352439E-01
C28 -9.291869243337E-02 -7.398935386365E-02 -2.506328685469E-01
H29 -1.815436217637E-01 -3.504902228210E-01 -2.133411012827E-01
H30  7.473593882285E-02  4.266116634247E-01 -2.595849200936E-01
C31 -4.822610418503E-02  1.635601064403E-01 -3.746522688131E-01
C32 -1.513946557933E-01 -1.706082125486E-01 -3.468985878435E-01
H33 -3.166407464715E-02  2.526014508283E-01 -4.232942158758E-01
C34 -1.301752063406E-01 -5.601665003543E-02 -4.069160358106E-01
H35 -2.118569624271E-01 -3.381076289105E-01 -3.702097167611E-01
H36 -1.750359392462E-01 -1.305065948052E-01 -4.796034153168E-01
C37 -4.448667563191E-01 -4.260445388659E-01  3.975700380716E-01
H38 -4.584918356557E-01 -3.490419972707E-01  4.620227467794E-01
C39  4.988367284786E-01 -3.126823459788E-01  3.265817825002E-01
C40 -3.668661557904E-01  3.543984293321E-01  3.883361571808E-01
H41  4.405497781034E-01 -1.458067509533E-01  3.338824416426E-01
C42 -4.848316690823E-01 -4.111676185666E-01  2.406784706081E-01
H43 -3.223273101043E-01  2.678410387561E-01  4.459974615099E-01
C44 -3.483207455544E-01  2.541933216502E-01  3.081735618605E-01
C45  4.588500633631E-01 -2.998711611890E-01  1.672795206559E-01
C46 -4.067407292868E-01  3.656192924724E-01  2.311107620464E-01
H47 -2.886998229678E-01  8.810123369872E-02  3.012054399227E-01
H48  4.003742118948E-01 -1.330513448049E-01  1.744931228732E-01
C49  4.767482895493E-01 -3.972432197174E-01  8.311738915682E-02
C50 -3.891175850205E-01  2.675229891789E-01  1.487804055369E-01
C51  4.214949301253E-01 -2.849970506964E-01  8.965057229014E-03
C52 -4.448140908862E-01  3.795281038413E-01  7.355329929728E-02
H53 -3.302587758115E-01  1.008745750589E-01  1.417102876760E-01
H54  3.625966237004E-01 -1.184151214115E-01  1.613350307812E-02
C55  4.413351021864E-01 -3.814010925945E-01 -7.393221516992E-02
C56 -4.250588735343E-01  2.830373427140E-01 -9.360515123284E-03
C57  3.861598556745E-01 -2.689503044615E-01 -1.490174200053E-01
C58 -4.794026465855E-01  3.957871975254E-01 -8.336040824546E-02
H59 -3.659364987234E-01  1.165372098719E-01 -1.647468581088E-02
H60  3.266344545045E-01 -1.026384361225E-01 -1.420253246536E-01
C61  4.064231144354E-01 -3.654053290362E-01 -2.308664387440E-01
C62 -4.592514053539E-01  2.998389256660E-01 -1.671130027647E-01
C63  3.500730400748E-01 -2.527094674150E-01 -3.075428465279E-01
C64  4.859398003679E-01  4.121409300634E-01 -2.401985844289E-01
H65 -3.998500382996E-01  1.334967290385E-01 -1.742051186536E-01
H66  2.895332450908E-01 -8.710198296700E-02 -3.007158628535E-01
C67  3.713971141320E-01 -3.512331133295E-01 -3.871930623524E-01
C68 -4.949273158048E-01  3.154296256602E-01 -3.256099573422E-01
H69  3.277985445835E-01 -2.641359295491E-01 -4.446812955213E-01
C70  4.501249048023E-01  4.296426862121E-01 -3.963010051984E-01
H71 -4.360566708680E-01  1.488776438033E-01 -3.328629202928E-01
H72  4.651941168731E-01  3.534165079055E-01 -4.604861520396E-01


#===END
