###############################################################################
#
#                    CRYSTAL17 CIF FILE
#
###############################################################################

data_OPT_STEP_1

_symmetry_space_group_name_H-M 'P 1'
_cell_length_a      7.90000000
_cell_length_b      6.06000000
_cell_length_c     16.01000000
_cell_angle_alpha  101.900002
_cell_angle_beta  112.599998
_cell_angle_gamma   85.800003

loop_
_atom_site_label
_atom_site_fract_x
_atom_site_fract_y
_atom_site_fract_z
C1  1.222577558472E-01  4.859410074882E-02  4.058341567826E-01
H2  1.615115173104E-01  1.226796278744E-01  4.783890738633E-01
C3  1.549806199912E-01  1.619659932106E-01  3.483732933220E-01
C4  3.660170871998E-02 -1.687181391368E-01  3.714779905696E-01
H5  2.182692349814E-01  3.277629735536E-01  3.737918708983E-01
C6  9.997298962366E-02  6.975282019556E-02  2.518140631429E-01
H7  1.182450189595E-02 -2.567832164418E-01  4.182499722181E-01
C8 -1.500062013524E-02 -2.649145889615E-01  2.805928901554E-01
C9  1.235759176907E-01  1.859276808537E-01  1.910597510233E-01
C10  1.117189061184E-02 -1.493475706860E-01  2.169181442336E-01
H11 -8.027355194842E-02 -4.292676115404E-01  2.544578060332E-01
H12  1.909020328984E-01  3.492999095410E-01  2.171532624587E-01
C13  5.925033079310E-02  9.881364466770E-02  9.529986783149E-02
C14 -5.156079016000E-02 -2.375190306798E-01  1.232483641352E-01
C15  8.174837619093E-02  2.152777168304E-01  3.338559708363E-02
C16 -3.112274400737E-02 -1.197287487647E-01  6.027833476814E-02
H17 -1.189208747256E-01 -4.008331243417E-01  9.721445576077E-02
H18  1.486953452045E-01  3.788644698341E-01  5.935966196271E-02
C19  2.431552037037E-02  1.237924214879E-01 -6.083208932424E-02
C20 -9.266738007221E-02 -2.087387017162E-01 -3.429618554963E-02
C21  5.328575638506E-02  2.366504281614E-01 -1.230301561046E-01
C22 -6.448461601322E-02 -9.565588157212E-02 -9.571864323209E-02
H23 -1.597267361809E-01 -3.722360783625E-01 -6.030539291143E-02
H24  1.186716464316E-01  4.011510215207E-01 -9.703181333893E-02
C25 -1.249861207833E-03  1.437431325944E-01 -2.160401816178E-01
C26 -1.179368184285E-01 -1.891350657061E-01 -1.905960298933E-01
C27  2.161598737552E-02  2.612391495319E-01 -2.800243724078E-01
C28 -8.891995739960E-02 -7.612468834534E-02 -2.508360283289E-01
H29 -1.846192734828E-01 -3.529133967522E-01 -2.167334224509E-01
H30  8.867717541630E-02  4.246004087840E-01 -2.538385796958E-01
C31 -4.354440322072E-02  1.728022615878E-01 -3.720012390792E-01
C32 -1.491491797380E-01 -1.654181994444E-01 -3.478149929404E-01
H33 -2.847065127255E-02  2.665309059794E-01 -4.196274110597E-01
C34 -1.303605091918E-01 -4.383348675484E-02 -4.064382809510E-01
H35 -2.123581833440E-01 -3.313083851844E-01 -3.733087979355E-01
H36 -1.803984691406E-01 -1.119113678012E-01 -4.799026826741E-01
C37 -4.511890772260E-01 -4.297646903171E-01  3.962489035126E-01
H38 -4.700350830811E-01 -3.556827403817E-01  4.597265701115E-01
C39  4.990882362688E-01 -3.128097617223E-01  3.264923214689E-01
C40 -3.724708426984E-01  3.511004132798E-01  3.871526351344E-01
H41  4.407485657577E-01 -1.459558190316E-01  3.337814152839E-01
C42 -4.810126767308E-01 -4.092569697094E-01  2.412327063402E-01
H43 -3.328049900218E-01  2.619442605435E-01  4.439304526321E-01
C44 -3.462006925877E-01  2.551892438310E-01  3.084509644510E-01
C45  4.603600074410E-01 -2.992016259734E-01  1.674051809092E-01
C46 -4.017528312529E-01  3.681344294900E-01  2.318825922513E-01
H47 -2.854620699717E-01  8.970963938870E-02  3.016933739739E-01
H48  4.009369562341E-01 -1.328655883477E-01  1.744492665618E-01
C49  4.753790378935E-01 -3.981167092866E-01  8.268587193265E-02
C50 -3.855849555608E-01  2.692391082781E-01  1.492672367509E-01
C51  4.184463358071E-01 -2.867772018771E-01  8.213565364537E-03
C52 -4.455530303849E-01  3.789873170031E-01  7.324616600089E-02
H53 -3.265029239751E-01  1.026602211538E-01  1.422179660380E-01
H54  3.592016037796E-01 -1.203740179855E-01  1.532977515711E-02
C55  4.405961626877E-01 -3.819418794327E-01 -7.423934846631E-02
C56 -4.281074678525E-01  2.812571915333E-01 -1.011200698776E-02
C57  3.896924851342E-01 -2.672341853623E-01 -1.485305887913E-01
C58 -4.807718982413E-01  3.949137079562E-01 -8.379192546963E-02
H59 -3.693315186442E-01  1.145783132979E-01 -1.727841373189E-02
H60  3.303903063409E-01 -1.008527900276E-01 -1.415176462916E-01
C61  4.114110124693E-01 -3.628901920186E-01 -2.300946085391E-01
C62 -4.577414612760E-01  3.005084608816E-01 -1.669873425114E-01
C63  3.521930930415E-01 -2.517135452342E-01 -3.072654439374E-01
C64  4.897587927194E-01  4.140515789206E-01 -2.396443486968E-01
H65 -3.992872939603E-01  1.336824854957E-01 -1.742489749650E-01
H66  2.927709980869E-01 -8.549357727702E-02 -3.002279288023E-01
C67  3.657924272240E-01 -3.545311293818E-01 -3.883765843988E-01
C68 -4.946758080146E-01  3.153022099167E-01 -3.256994183735E-01
H69  3.173208646660E-01 -2.700327077617E-01 -4.467483043991E-01
C70  4.438025838954E-01  4.259225347609E-01 -3.976221397574E-01
H71 -4.358578832137E-01  1.487285757250E-01 -3.329639466515E-01
H72  4.536508694477E-01  3.467757647945E-01 -4.627823287075E-01


#===END

data_OPT_STEP_2

_symmetry_space_group_name_H-M 'P 1'
_cell_length_a      7.90000000
_cell_length_b      6.06000000
_cell_length_c     16.01000000
_cell_angle_alpha  101.900002
_cell_angle_beta  112.599998
_cell_angle_gamma   85.800003

loop_
_atom_site_label
_atom_site_fract_x
_atom_site_fract_y
_atom_site_fract_z
C1  1.222577558472E-01  4.859410074882E-02  4.058341567826E-01
H2  1.615115173104E-01  1.226796278744E-01  4.783890738633E-01
C3  1.549806199912E-01  1.619659932106E-01  3.483732933220E-01
C4  3.660170871998E-02 -1.687181391368E-01  3.714779905696E-01
H5  2.182692349814E-01  3.277629735536E-01  3.737918708983E-01
C6  9.997298962366E-02  6.975282019556E-02  2.518140631429E-01
H7  1.182450189595E-02 -2.567832164418E-01  4.182499722181E-01
C8 -1.500062013524E-02 -2.649145889615E-01  2.805928901554E-01
C9  1.235759176907E-01  1.859276808537E-01  1.910597510233E-01
C10  1.117189061184E-02 -1.493475706860E-01  2.169181442336E-01
H11 -8.027355194842E-02 -4.292676115404E-01  2.544578060332E-01
H12  1.909020328984E-01  3.492999095410E-01  2.171532624587E-01
C13  5.925033079310E-02  9.881364466770E-02  9.529986783149E-02
C14 -5.156079016000E-02 -2.375190306798E-01  1.232483641352E-01
C15  8.174837619093E-02  2.152777168304E-01  3.338559708363E-02
C16 -3.112274400737E-02 -1.197287487647E-01  6.027833476814E-02
H17 -1.189208747256E-01 -4.008331243417E-01  9.721445576077E-02
H18  1.486953452045E-01  3.788644698341E-01  5.935966196271E-02
C19  2.431552037037E-02  1.237924214879E-01 -6.083208932424E-02
C20 -9.266738007221E-02 -2.087387017162E-01 -3.429618554963E-02
C21  5.328575638506E-02  2.366504281614E-01 -1.230301561046E-01
C22 -6.448461601322E-02 -9.565588157212E-02 -9.571864323209E-02
H23 -1.597267361809E-01 -3.722360783625E-01 -6.030539291143E-02
H24  1.186716464316E-01  4.011510215207E-01 -9.703181333893E-02
C25 -1.249861207833E-03  1.437431325944E-01 -2.160401816178E-01
C26 -1.179368184285E-01 -1.891350657061E-01 -1.905960298933E-01
C27  2.161598737552E-02  2.612391495319E-01 -2.800243724078E-01
C28 -8.891995739960E-02 -7.612468834534E-02 -2.508360283289E-01
H29 -1.846192734828E-01 -3.529133967522E-01 -2.167334224509E-01
H30  8.867717541630E-02  4.246004087840E-01 -2.538385796958E-01
C31 -4.354440322072E-02  1.728022615878E-01 -3.720012390792E-01
C32 -1.491491797380E-01 -1.654181994444E-01 -3.478149929404E-01
H33 -2.847065127255E-02  2.665309059794E-01 -4.196274110597E-01
C34 -1.303605091918E-01 -4.383348675484E-02 -4.064382809510E-01
H35 -2.123581833440E-01 -3.313083851844E-01 -3.733087979355E-01
H36 -1.803984691406E-01 -1.119113678012E-01 -4.799026826741E-01
C37 -4.511890772260E-01 -4.297646903171E-01  3.962489035126E-01
H38 -4.700350830811E-01 -3.556827403817E-01  4.597265701115E-01
C39  4.990882362688E-01 -3.128097617223E-01  3.264923214689E-01
C40 -3.724708426984E-01  3.511004132798E-01  3.871526351344E-01
H41  4.407485657577E-01 -1.459558190316E-01  3.337814152839E-01
C42 -4.810126767308E-01 -4.092569697094E-01  2.412327063402E-01
H43 -3.328049900218E-01  2.619442605435E-01  4.439304526321E-01
C44 -3.462006925877E-01  2.551892438310E-01  3.084509644510E-01
C45  4.603600074410E-01 -2.992016259734E-01  1.674051809092E-01
C46 -4.017528312529E-01  3.681344294900E-01  2.318825922513E-01
H47 -2.854620699717E-01  8.970963938870E-02  3.016933739739E-01
H48  4.009369562341E-01 -1.328655883477E-01  1.744492665618E-01
C49  4.753790378935E-01 -3.981167092866E-01  8.268587193265E-02
C50 -3.855849555608E-01  2.692391082781E-01  1.492672367509E-01
C51  4.184463358071E-01 -2.867772018771E-01  8.213565364537E-03
C52 -4.455530303849E-01  3.789873170031E-01  7.324616600089E-02
H53 -3.265029239751E-01  1.026602211538E-01  1.422179660380E-01
H54  3.592016037796E-01 -1.203740179855E-01  1.532977515711E-02
C55  4.405961626877E-01 -3.819418794327E-01 -7.423934846631E-02
C56 -4.281074678525E-01  2.812571915333E-01 -1.011200698776E-02
C57  3.896924851342E-01 -2.672341853623E-01 -1.485305887913E-01
C58 -4.807718982413E-01  3.949137079562E-01 -8.379192546963E-02
H59 -3.693315186442E-01  1.145783132979E-01 -1.727841373189E-02
H60  3.303903063409E-01 -1.008527900276E-01 -1.415176462916E-01
C61  4.114110124693E-01 -3.628901920186E-01 -2.300946085391E-01
C62 -4.577414612760E-01  3.005084608816E-01 -1.669873425114E-01
C63  3.521930930415E-01 -2.517135452342E-01 -3.072654439374E-01
C64  4.897587927194E-01  4.140515789206E-01 -2.396443486968E-01
H65 -3.992872939603E-01  1.336824854957E-01 -1.742489749650E-01
H66  2.927709980869E-01 -8.549357727702E-02 -3.002279288023E-01
C67  3.657924272240E-01 -3.545311293818E-01 -3.883765843988E-01
C68 -4.946758080146E-01  3.153022099167E-01 -3.256994183735E-01
H69  3.173208646660E-01 -2.700327077617E-01 -4.467483043991E-01
C70  4.438025838954E-01  4.259225347609E-01 -3.976221397574E-01
H71 -4.358578832137E-01  1.487285757250E-01 -3.329639466515E-01
H72  4.536508694477E-01  3.467757647945E-01 -4.627823287075E-01


#===END
