###############################################################################
#
#                    CRYSTAL17 CIF FILE
#
###############################################################################

data_OPT_STEP_1

_symmetry_space_group_name_H-M 'P 1'
_cell_length_a      7.90000000
_cell_length_b      6.06000000
_cell_length_c     16.01000000
_cell_angle_alpha  101.900002
_cell_angle_beta  112.599998
_cell_angle_gamma   85.800003

loop_
_atom_site_label
_atom_site_fract_x
_atom_site_fract_y
_atom_site_fract_z
C1  1.387742047106E-01  4.159622259296E-02  4.074809462450E-01
H2  1.856823448285E-01  1.121052824327E-01  4.806548165496E-01
C3  1.612267957323E-01  1.601560112160E-01  3.488952668579E-01
C4  5.215026992502E-02 -1.751646308226E-01  3.733364943447E-01
H5  2.242146438865E-01  3.260473839090E-01  3.740860913493E-01
C6  1.004528247454E-01  7.040903222830E-02  2.518942803266E-01
H7  3.452285247022E-02 -2.666412427456E-01  4.209729561915E-01
C8 -9.809145531184E-03 -2.662243523568E-01  2.816582381291E-01
C9  1.245404205780E-01  1.858169428621E-01  1.910416907891E-01
C10  1.192437062099E-02 -1.488582115400E-01  2.172937649253E-01
H11 -7.669176958151E-02 -4.297101718370E-01  2.557356780141E-01
H12  1.916170397353E-01  3.492321915953E-01  2.170586104600E-01
C13  6.361669120992E-02  9.638885306870E-02  9.558712430479E-02
C14 -4.918336304847E-02 -2.383605847122E-01  1.237601684666E-01
C15  8.749808788308E-02  2.117910974686E-01  3.368496444581E-02
C16 -2.626095994707E-02 -1.223936856681E-01  6.083943749097E-02
H17 -1.158926033929E-01 -4.020580009202E-01  9.786310488417E-02
H18  1.547486516598E-01  3.751419822590E-01  5.963902723436E-02
C19  2.626095994707E-02  1.223936856681E-01 -6.083943749097E-02
C20 -8.749808788308E-02 -2.117910974686E-01 -3.368496444581E-02
C21  4.918336304847E-02  2.383605847122E-01 -1.237601684666E-01
C22 -6.361669120992E-02 -9.638885306870E-02 -9.558712430479E-02
H23 -1.547486516598E-01 -3.751419822590E-01 -5.963902723436E-02
H24  1.158926033929E-01  4.020580009202E-01 -9.786310488417E-02
C25 -1.192437062099E-02  1.488582115400E-01 -2.172937649253E-01
C26 -1.245404205780E-01 -1.858169428621E-01 -1.910416907891E-01
C27  9.809145531184E-03  2.662243523568E-01 -2.816582381291E-01
C28 -1.004528247454E-01 -7.040903222830E-02 -2.518942803266E-01
H29 -1.916170397353E-01 -3.492321915953E-01 -2.170586104600E-01
H30  7.669176958151E-02  4.297101718370E-01 -2.557356780141E-01
C31 -5.215026992502E-02  1.751646308226E-01 -3.733364943447E-01
C32 -1.612267957323E-01 -1.601560112160E-01 -3.488952668579E-01
H33 -3.452285247022E-02  2.666412427456E-01 -4.209729561915E-01
C34 -1.387742047106E-01 -4.159622259296E-02 -4.074809462450E-01
H35 -2.242146438865E-01 -3.260473839090E-01 -3.740860913493E-01
H36 -1.856823448285E-01 -1.121052824327E-01 -4.806548165496E-01
C37 -4.619957847008E-01 -4.286946466685E-01  3.944038749823E-01
H38 -4.798156504029E-01 -3.525886107846E-01  4.578971977518E-01
C39  4.857685619508E-01 -3.146319354570E-01  3.237593193309E-01
C40 -3.818843944315E-01  3.528437195596E-01  3.862233546211E-01
H41  4.263497271339E-01 -1.484071411806E-01  3.304178886907E-01
C42 -4.919419941420E-01 -4.114888749890E-01  2.391595774638E-01
H43 -3.401423711103E-01  2.659145894761E-01  4.436953494270E-01
C44 -3.567448508057E-01  2.545122777217E-01  3.075042894555E-01
C45  4.545213095375E-01 -2.998142586113E-01  1.659534075765E-01
C46 -4.114065884728E-01  3.665058698479E-01  2.306570277853E-01
H47 -2.946979087854E-01  8.955444387644E-02  3.015030373888E-01
H48  3.946250183837E-01 -1.337276156475E-01  1.725600229592E-01
C49  4.761290409267E-01 -3.964009695860E-01  8.266006517773E-02
C50 -3.891845544174E-01  2.696300292063E-01  1.493318356631E-01
C51  4.219947440550E-01 -2.845703162672E-01  8.412180376163E-03
C52 -4.436332089215E-01  3.812334671286E-01  7.400135900748E-02
H53 -3.288497063752E-01  1.036423576244E-01  1.429052488152E-01
H54  3.620999474506E-01 -1.184457072620E-01  1.505594841119E-02
C55  4.436332089215E-01 -3.812334671286E-01 -7.400135900748E-02
C56 -4.219947440550E-01  2.845703162672E-01 -8.412180376163E-03
C57  3.891845544174E-01 -2.696300292063E-01 -1.493318356631E-01
C58 -4.761290409267E-01  3.964009695860E-01 -8.266006517773E-02
H59 -3.620999474506E-01  1.184457072620E-01 -1.505594841119E-02
H60  3.288497063752E-01 -1.036423576244E-01 -1.429052488152E-01
C61  4.114065884728E-01 -3.665058698479E-01 -2.306570277853E-01
C62 -4.545213095375E-01  2.998142586113E-01 -1.659534075765E-01
C63  3.567448508057E-01 -2.545122777217E-01 -3.075042894555E-01
C64  4.919419941420E-01  4.114888749890E-01 -2.391595774638E-01
H65 -3.946250183837E-01  1.337276156475E-01 -1.725600229592E-01
H66  2.946979087854E-01 -8.955444387644E-02 -3.015030373888E-01
C67  3.818843944315E-01 -3.528437195596E-01 -3.862233546211E-01
C68 -4.857685619508E-01  3.146319354570E-01 -3.237593193309E-01
H69  3.401423711103E-01 -2.659145894761E-01 -4.436953494270E-01
C70  4.619957847008E-01  4.286946466685E-01 -3.944038749823E-01
H71 -4.263497271339E-01  1.484071411806E-01 -3.304178886907E-01
H72  4.798156504029E-01  3.525886107846E-01 -4.578971977518E-01


#===END

data_OPT_STEP_2

_symmetry_space_group_name_H-M 'P 1'
_cell_length_a      7.90000000
_cell_length_b      6.06000000
_cell_length_c     16.01000000
_cell_angle_alpha  101.900002
_cell_angle_beta  112.599998
_cell_angle_gamma   85.800003

loop_
_atom_site_label
_atom_site_fract_x
_atom_site_fract_y
_atom_site_fract_z
C1  1.387742047106E-01  4.159622259296E-02  4.074809462450E-01
H2  1.856823448285E-01  1.121052824327E-01  4.806548165496E-01
C3  1.612267957323E-01  1.601560112160E-01  3.488952668579E-01
C4  5.215026992502E-02 -1.751646308226E-01  3.733364943447E-01
H5  2.242146438865E-01  3.260473839090E-01  3.740860913493E-01
C6  1.004528247454E-01  7.040903222830E-02  2.518942803266E-01
H7  3.452285247022E-02 -2.666412427456E-01  4.209729561915E-01
C8 -9.809145531184E-03 -2.662243523568E-01  2.816582381291E-01
C9  1.245404205780E-01  1.858169428621E-01  1.910416907891E-01
C10  1.192437062099E-02 -1.488582115400E-01  2.172937649253E-01
H11 -7.669176958151E-02 -4.297101718370E-01  2.557356780141E-01
H12  1.916170397353E-01  3.492321915953E-01  2.170586104600E-01
C13  6.361669120992E-02  9.638885306870E-02  9.558712430479E-02
C14 -4.918336304847E-02 -2.383605847122E-01  1.237601684666E-01
C15  8.749808788308E-02  2.117910974686E-01  3.368496444581E-02
C16 -2.626095994707E-02 -1.223936856681E-01  6.083943749097E-02
H17 -1.158926033929E-01 -4.020580009202E-01  9.786310488417E-02
H18  1.547486516598E-01  3.751419822590E-01  5.963902723436E-02
C19  2.626095994707E-02  1.223936856681E-01 -6.083943749097E-02
C20 -8.749808788308E-02 -2.117910974686E-01 -3.368496444581E-02
C21  4.918336304847E-02  2.383605847122E-01 -1.237601684666E-01
C22 -6.361669120992E-02 -9.638885306870E-02 -9.558712430479E-02
H23 -1.547486516598E-01 -3.751419822590E-01 -5.963902723436E-02
H24  1.158926033929E-01  4.020580009202E-01 -9.786310488417E-02
C25 -1.192437062099E-02  1.488582115400E-01 -2.172937649253E-01
C26 -1.245404205780E-01 -1.858169428621E-01 -1.910416907891E-01
C27  9.809145531184E-03  2.662243523568E-01 -2.816582381291E-01
C28 -1.004528247454E-01 -7.040903222830E-02 -2.518942803266E-01
H29 -1.916170397353E-01 -3.492321915953E-01 -2.170586104600E-01
H30  7.669176958151E-02  4.297101718370E-01 -2.557356780141E-01
C31 -5.215026992502E-02  1.751646308226E-01 -3.733364943447E-01
C32 -1.612267957323E-01 -1.601560112160E-01 -3.488952668579E-01
H33 -3.452285247022E-02  2.666412427456E-01 -4.209729561915E-01
C34 -1.387742047106E-01 -4.159622259296E-02 -4.074809462450E-01
H35 -2.242146438865E-01 -3.260473839090E-01 -3.740860913493E-01
H36 -1.856823448285E-01 -1.121052824327E-01 -4.806548165496E-01
C37 -4.619957847008E-01 -4.286946466685E-01  3.944038749823E-01
H38 -4.798156504029E-01 -3.525886107846E-01  4.578971977518E-01
C39  4.857685619508E-01 -3.146319354570E-01  3.237593193309E-01
C40 -3.818843944315E-01  3.528437195596E-01  3.862233546211E-01
H41  4.263497271339E-01 -1.484071411806E-01  3.304178886907E-01
C42 -4.919419941420E-01 -4.114888749890E-01  2.391595774638E-01
H43 -3.401423711103E-01  2.659145894761E-01  4.436953494270E-01
C44 -3.567448508057E-01  2.545122777217E-01  3.075042894555E-01
C45  4.545213095375E-01 -2.998142586113E-01  1.659534075765E-01
C46 -4.114065884728E-01  3.665058698479E-01  2.306570277853E-01
H47 -2.946979087854E-01  8.955444387644E-02  3.015030373888E-01
H48  3.946250183837E-01 -1.337276156475E-01  1.725600229592E-01
C49  4.761290409267E-01 -3.964009695860E-01  8.266006517773E-02
C50 -3.891845544174E-01  2.696300292063E-01  1.493318356631E-01
C51  4.219947440550E-01 -2.845703162672E-01  8.412180376163E-03
C52 -4.436332089215E-01  3.812334671286E-01  7.400135900748E-02
H53 -3.288497063752E-01  1.036423576244E-01  1.429052488152E-01
H54  3.620999474506E-01 -1.184457072620E-01  1.505594841119E-02
C55  4.436332089215E-01 -3.812334671286E-01 -7.400135900748E-02
C56 -4.219947440550E-01  2.845703162672E-01 -8.412180376163E-03
C57  3.891845544174E-01 -2.696300292063E-01 -1.493318356631E-01
C58 -4.761290409267E-01  3.964009695860E-01 -8.266006517773E-02
H59 -3.620999474506E-01  1.184457072620E-01 -1.505594841119E-02
H60  3.288497063752E-01 -1.036423576244E-01 -1.429052488152E-01
C61  4.114065884728E-01 -3.665058698479E-01 -2.306570277853E-01
C62 -4.545213095375E-01  2.998142586113E-01 -1.659534075765E-01
C63  3.567448508057E-01 -2.545122777217E-01 -3.075042894555E-01
C64  4.919419941420E-01  4.114888749890E-01 -2.391595774638E-01
H65 -3.946250183837E-01  1.337276156475E-01 -1.725600229592E-01
H66  2.946979087854E-01 -8.955444387644E-02 -3.015030373888E-01
C67  3.818843944315E-01 -3.528437195596E-01 -3.862233546211E-01
C68 -4.857685619508E-01  3.146319354570E-01 -3.237593193309E-01
H69  3.401423711103E-01 -2.659145894761E-01 -4.436953494270E-01
C70  4.619957847008E-01  4.286946466685E-01 -3.944038749823E-01
H71 -4.263497271339E-01  1.484071411806E-01 -3.304178886907E-01
H72  4.798156504029E-01  3.525886107846E-01 -4.578971977518E-01


#===END
