###############################################################################
#
#                    CRYSTAL17 CIF FILE
#
###############################################################################

data_OPT_STEP_1

_symmetry_space_group_name_H-M 'P 1'
_cell_length_a      7.90000000
_cell_length_b      6.06000000
_cell_length_c     16.01000000
_cell_angle_alpha  101.900002
_cell_angle_beta  112.599998
_cell_angle_gamma   85.800003

loop_
_atom_site_label
_atom_site_fract_x
_atom_site_fract_y
_atom_site_fract_z
C1  1.337069488325E-01  4.309072998387E-02  4.068080281929E-01
H2  1.833218450099E-01  1.112658604635E-01  4.802433846786E-01
C3  1.572458284494E-01  1.617765479724E-01  3.485393701032E-01
C4  4.222114663071E-02 -1.707864744865E-01  3.720246176753E-01
H5  2.237479773025E-01  3.257626412964E-01  3.741871426004E-01
C6  9.359185815269E-02  7.436807767847E-02  2.512681692618E-01
H7  2.316536446198E-02 -2.621791224434E-01  4.193075169524E-01
C8 -2.233258274064E-02 -2.595982649914E-01  2.801068008608E-01
C9  1.194915765069E-01  1.889412924220E-01  1.906670243476E-01
C10  1.551298449635E-03 -1.428710323490E-01  2.161810860723E-01
H11 -9.178130577923E-02 -4.215058492827E-01  2.537208769365E-01
H12  1.883955614366E-01  3.513486420778E-01  2.168494263125E-01
C13  6.004645378473E-02  9.864517178347E-02  9.533170039502E-02
C14 -5.912047221935E-02 -2.324794394577E-01  1.227048371783E-01
C15  8.880971926822E-02  2.110640346891E-01  3.389016660461E-02
C16 -3.151162788747E-02 -1.191691189761E-01  6.030220029386E-02
H17 -1.273498356775E-01 -3.952978673028E-01  9.660270560740E-02
H18  1.567711137637E-01  3.739964999336E-01  5.989241662868E-02
C19  3.151162788747E-02  1.191691189761E-01 -6.030220029386E-02
C20 -8.880971926822E-02 -2.110640346891E-01 -3.389016660461E-02
C21  5.912047221935E-02  2.324794394577E-01 -1.227048371783E-01
C22 -6.004645378473E-02 -9.864517178347E-02 -9.533170039502E-02
H23 -1.567711137637E-01 -3.739964999336E-01 -5.989241662868E-02
H24  1.273498356775E-01  3.952978673028E-01 -9.660270560740E-02
C25 -1.551298449635E-03  1.428710323490E-01 -2.161810860723E-01
C26 -1.194915765069E-01 -1.889412924220E-01 -1.906670243476E-01
C27  2.233258274064E-02  2.595982649914E-01 -2.801068008608E-01
C28 -9.359185815269E-02 -7.436807767847E-02 -2.512681692618E-01
H29 -1.883955614366E-01 -3.513486420778E-01 -2.168494263125E-01
H30  9.178130577923E-02  4.215058492827E-01 -2.537208769365E-01
C31 -4.222114663071E-02  1.707864744865E-01 -3.720246176753E-01
C32 -1.572458284494E-01 -1.617765479724E-01 -3.485393701032E-01
H33 -2.316536446198E-02  2.621791224434E-01 -4.193075169524E-01
C34 -1.337069488325E-01 -4.309072998387E-02 -4.068080281929E-01
H35 -2.237479773025E-01 -3.257626412964E-01 -3.741871426004E-01
H36 -1.833218450099E-01 -1.112658604635E-01 -4.802433846786E-01
C37 -4.454451617122E-01 -4.269061791392E-01  3.972008757754E-01
H38 -4.597599311628E-01 -3.502704015841E-01  4.615304013117E-01
C39  4.921859022072E-01 -3.167576664738E-01  3.251191536690E-01
C40 -3.605505871834E-01  3.573489363837E-01  3.892385654716E-01
H41  4.293027517632E-01 -1.524707721333E-01  3.316285472614E-01
C42 -4.898792738373E-01 -4.142041956874E-01  2.395218611102E-01
H43 -3.113438674224E-01  2.735167233454E-01  4.478068570802E-01
C44 -3.423548218526E-01  2.570425934947E-01  3.089977032193E-01
C45  4.518273465617E-01 -3.038077554845E-01  1.658089504935E-01
C46 -4.060707271734E-01  3.657228945261E-01  2.309908498277E-01
H47 -2.788826572429E-01  9.306776004757E-02  3.027070251415E-01
H48  3.904078699242E-01 -1.386326301350E-01  1.725221286185E-01
C49  4.739066163004E-01 -3.987805805404E-01  8.244583911801E-02
C50 -3.868148920308E-01  2.686714447453E-01  1.489694751356E-01
C51  4.199070943327E-01 -2.858746261304E-01  8.540465320353E-03
C52 -4.435970944251E-01  3.802260918063E-01  7.360258703275E-02
H53 -3.248767380963E-01  1.037322655542E-01  1.424487365798E-01
H54  3.586820939607E-01 -1.206022591558E-01  1.524245506098E-02
C55  4.435970944251E-01 -3.802260918063E-01 -7.360258703275E-02
C56 -4.199070943327E-01  2.858746261304E-01 -8.540465320353E-03
C57  3.868148920308E-01 -2.686714447453E-01 -1.489694751356E-01
C58 -4.739066163004E-01  3.987805805404E-01 -8.244583911801E-02
H59 -3.586820939607E-01  1.206022591558E-01 -1.524245506098E-02
H60  3.248767380963E-01 -1.037322655542E-01 -1.424487365798E-01
C61  4.060707271734E-01 -3.657228945261E-01 -2.309908498277E-01
C62 -4.518273465617E-01  3.038077554845E-01 -1.658089504935E-01
C63  3.423548218526E-01 -2.570425934947E-01 -3.089977032193E-01
C64  4.898792738373E-01  4.142041956874E-01 -2.395218611102E-01
H65 -3.904078699242E-01  1.386326301350E-01 -1.725221286185E-01
H66  2.788826572429E-01 -9.306776004757E-02 -3.027070251415E-01
C67  3.605505871834E-01 -3.573489363837E-01 -3.892385654716E-01
C68 -4.921859022072E-01  3.167576664738E-01 -3.251191536690E-01
H69  3.113438674224E-01 -2.735167233454E-01 -4.478068570802E-01
C70  4.454451617122E-01  4.269061791392E-01 -3.972008757754E-01
H71 -4.293027517632E-01  1.524707721333E-01 -3.316285472614E-01
H72  4.597599311628E-01  3.502704015841E-01 -4.615304013117E-01


#===END

data_OPT_STEP_2

_symmetry_space_group_name_H-M 'P 1'
_cell_length_a      7.90000000
_cell_length_b      6.06000000
_cell_length_c     16.01000000
_cell_angle_alpha  101.900002
_cell_angle_beta  112.599998
_cell_angle_gamma   85.800003

loop_
_atom_site_label
_atom_site_fract_x
_atom_site_fract_y
_atom_site_fract_z
C1  1.337069488325E-01  4.309072998387E-02  4.068080281929E-01
H2  1.833218450099E-01  1.112658604635E-01  4.802433846786E-01
C3  1.572458284494E-01  1.617765479724E-01  3.485393701032E-01
C4  4.222114663071E-02 -1.707864744865E-01  3.720246176753E-01
H5  2.237479773025E-01  3.257626412964E-01  3.741871426004E-01
C6  9.359185815269E-02  7.436807767847E-02  2.512681692618E-01
H7  2.316536446198E-02 -2.621791224434E-01  4.193075169524E-01
C8 -2.233258274064E-02 -2.595982649914E-01  2.801068008608E-01
C9  1.194915765069E-01  1.889412924220E-01  1.906670243476E-01
C10  1.551298449635E-03 -1.428710323490E-01  2.161810860723E-01
H11 -9.178130577923E-02 -4.215058492827E-01  2.537208769365E-01
H12  1.883955614366E-01  3.513486420778E-01  2.168494263125E-01
C13  6.004645378473E-02  9.864517178347E-02  9.533170039502E-02
C14 -5.912047221935E-02 -2.324794394577E-01  1.227048371783E-01
C15  8.880971926822E-02  2.110640346891E-01  3.389016660461E-02
C16 -3.151162788747E-02 -1.191691189761E-01  6.030220029386E-02
H17 -1.273498356775E-01 -3.952978673028E-01  9.660270560740E-02
H18  1.567711137637E-01  3.739964999336E-01  5.989241662868E-02
C19  3.151162788747E-02  1.191691189761E-01 -6.030220029386E-02
C20 -8.880971926822E-02 -2.110640346891E-01 -3.389016660461E-02
C21  5.912047221935E-02  2.324794394577E-01 -1.227048371783E-01
C22 -6.004645378473E-02 -9.864517178347E-02 -9.533170039502E-02
H23 -1.567711137637E-01 -3.739964999336E-01 -5.989241662868E-02
H24  1.273498356775E-01  3.952978673028E-01 -9.660270560740E-02
C25 -1.551298449635E-03  1.428710323490E-01 -2.161810860723E-01
C26 -1.194915765069E-01 -1.889412924220E-01 -1.906670243476E-01
C27  2.233258274064E-02  2.595982649914E-01 -2.801068008608E-01
C28 -9.359185815269E-02 -7.436807767847E-02 -2.512681692618E-01
H29 -1.883955614366E-01 -3.513486420778E-01 -2.168494263125E-01
H30  9.178130577923E-02  4.215058492827E-01 -2.537208769365E-01
C31 -4.222114663071E-02  1.707864744865E-01 -3.720246176753E-01
C32 -1.572458284494E-01 -1.617765479724E-01 -3.485393701032E-01
H33 -2.316536446198E-02  2.621791224434E-01 -4.193075169524E-01
C34 -1.337069488325E-01 -4.309072998387E-02 -4.068080281929E-01
H35 -2.237479773025E-01 -3.257626412964E-01 -3.741871426004E-01
H36 -1.833218450099E-01 -1.112658604635E-01 -4.802433846786E-01
C37 -4.454451617122E-01 -4.269061791392E-01  3.972008757754E-01
H38 -4.597599311628E-01 -3.502704015841E-01  4.615304013117E-01
C39  4.921859022072E-01 -3.167576664738E-01  3.251191536690E-01
C40 -3.605505871834E-01  3.573489363837E-01  3.892385654716E-01
H41  4.293027517632E-01 -1.524707721333E-01  3.316285472614E-01
C42 -4.898792738373E-01 -4.142041956874E-01  2.395218611102E-01
H43 -3.113438674224E-01  2.735167233454E-01  4.478068570802E-01
C44 -3.423548218526E-01  2.570425934947E-01  3.089977032193E-01
C45  4.518273465617E-01 -3.038077554845E-01  1.658089504935E-01
C46 -4.060707271734E-01  3.657228945261E-01  2.309908498277E-01
H47 -2.788826572429E-01  9.306776004757E-02  3.027070251415E-01
H48  3.904078699242E-01 -1.386326301350E-01  1.725221286185E-01
C49  4.739066163004E-01 -3.987805805404E-01  8.244583911801E-02
C50 -3.868148920308E-01  2.686714447453E-01  1.489694751356E-01
C51  4.199070943327E-01 -2.858746261304E-01  8.540465320353E-03
C52 -4.435970944251E-01  3.802260918063E-01  7.360258703275E-02
H53 -3.248767380963E-01  1.037322655542E-01  1.424487365798E-01
H54  3.586820939607E-01 -1.206022591558E-01  1.524245506098E-02
C55  4.435970944251E-01 -3.802260918063E-01 -7.360258703275E-02
C56 -4.199070943327E-01  2.858746261304E-01 -8.540465320353E-03
C57  3.868148920308E-01 -2.686714447453E-01 -1.489694751356E-01
C58 -4.739066163004E-01  3.987805805404E-01 -8.244583911801E-02
H59 -3.586820939607E-01  1.206022591558E-01 -1.524245506098E-02
H60  3.248767380963E-01 -1.037322655542E-01 -1.424487365798E-01
C61  4.060707271734E-01 -3.657228945261E-01 -2.309908498277E-01
C62 -4.518273465617E-01  3.038077554845E-01 -1.658089504935E-01
C63  3.423548218526E-01 -2.570425934947E-01 -3.089977032193E-01
C64  4.898792738373E-01  4.142041956874E-01 -2.395218611102E-01
H65 -3.904078699242E-01  1.386326301350E-01 -1.725221286185E-01
H66  2.788826572429E-01 -9.306776004757E-02 -3.027070251415E-01
C67  3.605505871834E-01 -3.573489363837E-01 -3.892385654716E-01
C68 -4.921859022072E-01  3.167576664738E-01 -3.251191536690E-01
H69  3.113438674224E-01 -2.735167233454E-01 -4.478068570802E-01
C70  4.454451617122E-01  4.269061791392E-01 -3.972008757754E-01
H71 -4.293027517632E-01  1.524707721333E-01 -3.316285472614E-01
H72  4.597599311628E-01  3.502704015841E-01 -4.615304013117E-01


#===END
