###############################################################################
#
#                    CRYSTAL17 CIF FILE
#
###############################################################################

data_OPT_STEP_1

_symmetry_space_group_name_H-M 'P 1'
_cell_length_a      7.90000000
_cell_length_b      6.06000000
_cell_length_c     16.01000000
_cell_angle_alpha  101.900002
_cell_angle_beta  112.599998
_cell_angle_gamma   85.800003

loop_
_atom_site_label
_atom_site_fract_x
_atom_site_fract_y
_atom_site_fract_z
C1  1.067361130244E-01  5.502324486726E-02  4.051299579320E-01
H2  1.423567099021E-01  1.305617710608E-01  4.774158297604E-01
C3  1.404527316101E-01  1.685996530536E-01  3.479920907076E-01
C4  2.412387265691E-02 -1.640672340021E-01  3.707815753198E-01
H5  2.009172220351E-01  3.360084237635E-01  3.734575647688E-01
C6  9.384255991825E-02  7.242897759468E-02  2.520700512697E-01
H7 -2.953869851820E-03 -2.512163930838E-01  4.172276162539E-01
C8 -2.275125125981E-02 -2.622480287499E-01  2.802212489370E-01
C9  1.261258805763E-01  1.842019340945E-01  1.922810342239E-01
C10  8.997358738985E-03 -1.490475616365E-01  2.173037279490E-01
H11 -8.627855366082E-02 -4.276475215571E-01  2.539365374784E-01
H12  1.909036906579E-01  3.491033988789E-01  2.184844382479E-01
C13  7.359543923429E-02  9.074841504434E-02  9.737309657432E-02
C14 -4.193372714522E-02 -2.434530630966E-01  1.245619757868E-01
C15  1.011493350285E-01  2.042779435646E-01  3.585843488455E-02
C16 -1.453865477374E-02 -1.290721245078E-01  6.245117370426E-02
H17 -1.064064634054E-01 -4.084072744568E-01  9.845118976535E-02
H18  1.677580968126E-01  3.680206531879E-01  6.181206262963E-02
C19  4.089960960400E-02  1.144490457448E-01 -5.865925038812E-02
C20 -7.326642123468E-02 -2.197384749820E-01 -3.182334774871E-02
C21  6.291281939984E-02  2.307163957446E-01 -1.217165444530E-01
C22 -5.013950757203E-02 -1.037211111955E-01 -9.364541448926E-02
H23 -1.406639845728E-01 -3.830798950087E-01 -5.785299224451E-02
H24  1.311860577518E-01  3.935768714056E-01 -9.579507933435E-02
C25 -3.424393080693E-03  1.440431416439E-01 -2.156545979024E-01
C26 -1.153868555429E-01 -1.908608124653E-01 -1.893747466927E-01
C27  1.386535625095E-02  2.639057097435E-01 -2.803960136262E-01
C28 -9.505038710501E-02 -7.344853094622E-02 -2.505800402021E-01
H29 -1.846176157233E-01 -3.531099074143E-01 -2.154022466617E-01
H30  8.267217370390E-02  4.262204987673E-01 -2.543598482506E-01
C31 -5.602223928379E-02  1.774531667225E-01 -3.726976543290E-01
C32 -1.636770681191E-01 -1.587845396014E-01 -3.481961955548E-01
H33 -4.324902302032E-02  2.720977293374E-01 -4.206497670239E-01
C34 -1.458821520146E-01 -3.740434263640E-02 -4.071424798016E-01
H35 -2.297101962903E-01 -3.230629349745E-01 -3.736431040650E-01
H36 -1.995532765489E-01 -1.040292246148E-01 -4.808759267770E-01
C37 -4.635922336954E-01 -4.334309720379E-01  3.932845737841E-01
H38 -4.847696103929E-01 -3.600434073291E-01  4.562539195454E-01
C39  4.889390027721E-01 -3.160894222384E-01  3.237124414461E-01
C40 -3.852318771536E-01  3.472407739742E-01  3.844230616002E-01
H41  4.301066556255E-01 -1.494293688037E-01  3.305958513989E-01
C42 -4.852226194396E-01 -4.103618187174E-01  2.396809317854E-01
H43 -3.478011661509E-01  2.575385664274E-01  4.409725513693E-01
C44 -3.569095690961E-01  2.515422694874E-01  3.062112167486E-01
C45  4.655416665518E-01 -2.960559931010E-01  1.674045571899E-01
C46 -4.062316351918E-01  3.668822186255E-01  2.305080829766E-01
H47 -2.965444230623E-01  8.584941306325E-02  2.997368607313E-01
H48  4.063132239572E-01 -1.295892525285E-01  1.741875698561E-01
C49  4.890996572370E-01 -3.910527124330E-01  8.442446547890E-02
C50 -3.806928789150E-01  2.722786994554E-01  1.497015415580E-01
C51  4.358967070616E-01 -2.778102995478E-01  1.068719363199E-02
C52 -4.318896365080E-01  3.859532893782E-01  7.504176339769E-02
H53 -3.213474382327E-01  1.057706401476E-01  1.429888294336E-01
H54  3.767932636930E-01 -1.113036644789E-01  1.779011357499E-02
C55  4.542595565646E-01 -3.749759070576E-01 -7.244375106951E-02
C56 -4.106570965980E-01  2.902240938626E-01 -7.638378720304E-03
C57  3.945845617800E-01 -2.641945941850E-01 -1.480962839842E-01
C58 -4.670512788978E-01  4.019777048098E-01 -8.205333192338E-02
H59 -3.517398587308E-01  1.236486668045E-01 -1.481807531401E-02
H60  3.355457920833E-01 -9.774237103381E-02 -1.407467828960E-01
C61  4.069322085304E-01 -3.641424028831E-01 -2.314691178138E-01
C62 -4.525598021652E-01  3.036540937540E-01 -1.669879662307E-01
C63  3.414842165331E-01 -2.553605195778E-01 -3.095051916398E-01
C64  4.855488500106E-01  4.129467299126E-01 -2.411961232516E-01
H65 -3.939110262372E-01  1.369588213149E-01 -1.745106716707E-01
H66  2.816886449963E-01 -8.935380360247E-02 -3.021844420449E-01
C67  3.530313927688E-01 -3.583907686874E-01 -3.911061579330E-01
C68  4.951749584887E-01  3.120225494006E-01 -3.284792983963E-01
H69  3.023246885369E-01 -2.744384018778E-01 -4.497062056619E-01
C70  4.313994274260E-01  4.222562530401E-01 -4.005864694859E-01
H71 -4.464997933459E-01  1.452550259529E-01 -3.361495105365E-01
H72  4.389163421359E-01  3.424150978471E-01 -4.662549792736E-01


#===END

data_OPT_STEP_2

_symmetry_space_group_name_H-M 'P 1'
_cell_length_a      7.90000000
_cell_length_b      6.06000000
_cell_length_c     16.01000000
_cell_angle_alpha  101.900002
_cell_angle_beta  112.599998
_cell_angle_gamma   85.800003

loop_
_atom_site_label
_atom_site_fract_x
_atom_site_fract_y
_atom_site_fract_z
C1  1.067361130244E-01  5.502324486726E-02  4.051299579320E-01
H2  1.423567099021E-01  1.305617710608E-01  4.774158297604E-01
C3  1.404527316101E-01  1.685996530536E-01  3.479920907076E-01
C4  2.412387265691E-02 -1.640672340021E-01  3.707815753198E-01
H5  2.009172220351E-01  3.360084237635E-01  3.734575647688E-01
C6  9.384255991825E-02  7.242897759468E-02  2.520700512697E-01
H7 -2.953869851820E-03 -2.512163930838E-01  4.172276162539E-01
C8 -2.275125125981E-02 -2.622480287499E-01  2.802212489370E-01
C9  1.261258805763E-01  1.842019340945E-01  1.922810342239E-01
C10  8.997358738985E-03 -1.490475616365E-01  2.173037279490E-01
H11 -8.627855366082E-02 -4.276475215571E-01  2.539365374784E-01
H12  1.909036906579E-01  3.491033988789E-01  2.184844382479E-01
C13  7.359543923429E-02  9.074841504434E-02  9.737309657432E-02
C14 -4.193372714522E-02 -2.434530630966E-01  1.245619757868E-01
C15  1.011493350285E-01  2.042779435646E-01  3.585843488455E-02
C16 -1.453865477374E-02 -1.290721245078E-01  6.245117370426E-02
H17 -1.064064634054E-01 -4.084072744568E-01  9.845118976535E-02
H18  1.677580968126E-01  3.680206531879E-01  6.181206262963E-02
C19  4.089960960400E-02  1.144490457448E-01 -5.865925038812E-02
C20 -7.326642123468E-02 -2.197384749820E-01 -3.182334774871E-02
C21  6.291281939984E-02  2.307163957446E-01 -1.217165444530E-01
C22 -5.013950757203E-02 -1.037211111955E-01 -9.364541448926E-02
H23 -1.406639845728E-01 -3.830798950087E-01 -5.785299224451E-02
H24  1.311860577518E-01  3.935768714056E-01 -9.579507933435E-02
C25 -3.424393080693E-03  1.440431416439E-01 -2.156545979024E-01
C26 -1.153868555429E-01 -1.908608124653E-01 -1.893747466927E-01
C27  1.386535625095E-02  2.639057097435E-01 -2.803960136262E-01
C28 -9.505038710501E-02 -7.344853094622E-02 -2.505800402021E-01
H29 -1.846176157233E-01 -3.531099074143E-01 -2.154022466617E-01
H30  8.267217370390E-02  4.262204987673E-01 -2.543598482506E-01
C31 -5.602223928379E-02  1.774531667225E-01 -3.726976543290E-01
C32 -1.636770681191E-01 -1.587845396014E-01 -3.481961955548E-01
H33 -4.324902302032E-02  2.720977293374E-01 -4.206497670239E-01
C34 -1.458821520146E-01 -3.740434263640E-02 -4.071424798016E-01
H35 -2.297101962903E-01 -3.230629349745E-01 -3.736431040650E-01
H36 -1.995532765489E-01 -1.040292246148E-01 -4.808759267770E-01
C37 -4.635922336954E-01 -4.334309720379E-01  3.932845737841E-01
H38 -4.847696103929E-01 -3.600434073291E-01  4.562539195454E-01
C39  4.889390027721E-01 -3.160894222384E-01  3.237124414461E-01
C40 -3.852318771536E-01  3.472407739742E-01  3.844230616002E-01
H41  4.301066556255E-01 -1.494293688037E-01  3.305958513989E-01
C42 -4.852226194396E-01 -4.103618187174E-01  2.396809317854E-01
H43 -3.478011661509E-01  2.575385664274E-01  4.409725513693E-01
C44 -3.569095690961E-01  2.515422694874E-01  3.062112167486E-01
C45  4.655416665518E-01 -2.960559931010E-01  1.674045571899E-01
C46 -4.062316351918E-01  3.668822186255E-01  2.305080829766E-01
H47 -2.965444230623E-01  8.584941306325E-02  2.997368607313E-01
H48  4.063132239572E-01 -1.295892525285E-01  1.741875698561E-01
C49  4.890996572370E-01 -3.910527124330E-01  8.442446547890E-02
C50 -3.806928789150E-01  2.722786994554E-01  1.497015415580E-01
C51  4.358967070616E-01 -2.778102995478E-01  1.068719363199E-02
C52 -4.318896365080E-01  3.859532893782E-01  7.504176339769E-02
H53 -3.213474382327E-01  1.057706401476E-01  1.429888294336E-01
H54  3.767932636930E-01 -1.113036644789E-01  1.779011357499E-02
C55  4.542595565646E-01 -3.749759070576E-01 -7.244375106951E-02
C56 -4.106570965980E-01  2.902240938626E-01 -7.638378720304E-03
C57  3.945845617800E-01 -2.641945941850E-01 -1.480962839842E-01
C58 -4.670512788978E-01  4.019777048098E-01 -8.205333192338E-02
H59 -3.517398587308E-01  1.236486668045E-01 -1.481807531401E-02
H60  3.355457920833E-01 -9.774237103381E-02 -1.407467828960E-01
C61  4.069322085304E-01 -3.641424028831E-01 -2.314691178138E-01
C62 -4.525598021652E-01  3.036540937540E-01 -1.669879662307E-01
C63  3.414842165331E-01 -2.553605195778E-01 -3.095051916398E-01
C64  4.855488500106E-01  4.129467299126E-01 -2.411961232516E-01
H65 -3.939110262372E-01  1.369588213149E-01 -1.745106716707E-01
H66  2.816886449963E-01 -8.935380360247E-02 -3.021844420449E-01
C67  3.530313927688E-01 -3.583907686874E-01 -3.911061579330E-01
C68  4.951749584887E-01  3.120225494006E-01 -3.284792983963E-01
H69  3.023246885369E-01 -2.744384018778E-01 -4.497062056619E-01
C70  4.313994274260E-01  4.222562530401E-01 -4.005864694859E-01
H71 -4.464997933459E-01  1.452550259529E-01 -3.361495105365E-01
H72  4.389163421359E-01  3.424150978471E-01 -4.662549792736E-01


#===END
