###############################################################################
#
#                    CRYSTAL17 CIF FILE
#
###############################################################################

data_OPT_STEP_1

_symmetry_space_group_name_H-M 'P 1'
_cell_length_a      7.90000000
_cell_length_b      6.06000000
_cell_length_c     16.01000000
_cell_angle_alpha  101.900002
_cell_angle_beta  112.599998
_cell_angle_gamma   85.800003

loop_
_atom_site_label
_atom_site_fract_x
_atom_site_fract_y
_atom_site_fract_z
C1  1.404103708301E-01  2.447737687187E-02  4.065219915607E-01
H2  1.845900882542E-01  9.431639758086E-02  4.796768205930E-01
C3  1.663466929074E-01  1.442009750264E-01  3.492172621519E-01
C4  5.327318155699E-02 -1.917807927724E-01  3.710750783667E-01
H5  2.295797976906E-01  3.099445070624E-01  3.753397820731E-01
C6  1.069017158334E-01  5.717462613068E-02  2.520698287928E-01
H7  3.297292958808E-02 -2.845411760033E-01  4.176045539200E-01
C8 -6.383171203290E-03 -2.809070613420E-01  2.792861653435E-01
C9  1.316224556740E-01  1.753863672179E-01  1.921982087118E-01
C10  1.684801933013E-02 -1.610309117636E-01  2.160633669602E-01
H11 -7.333462917265E-02 -4.441387275750E-01  2.523623070316E-01
H12  1.999695913062E-01  3.379958950663E-01  2.191866412100E-01
C13  6.786269032788E-02  9.077596000196E-02  9.624626636816E-02
C14 -4.612303436348E-02 -2.463578276270E-01  1.221231861867E-01
C15  9.004614396808E-02  2.102708849519E-01  3.508682730202E-02
C16 -2.450983050207E-02 -1.264301917855E-01  6.004019938409E-02
H17 -1.142912199339E-01 -4.090980171716E-01  9.518240387373E-02
H18  1.591778101145E-01  3.724747088197E-01  6.205824348291E-02
C19  2.450983050207E-02  1.264301917855E-01 -6.004019938409E-02
C20 -9.004614396808E-02 -2.102708849519E-01 -3.508682730202E-02
C21  4.612303436348E-02  2.463578276270E-01 -1.221231861867E-01
C22 -6.786269032788E-02 -9.077596000196E-02 -9.624626636816E-02
H23 -1.591778101145E-01 -3.724747088197E-01 -6.205824348291E-02
H24  1.142912199339E-01  4.090980171716E-01 -9.518240387373E-02
C25 -1.684801933013E-02  1.610309117636E-01 -2.160633669602E-01
C26 -1.316224556740E-01 -1.753863672179E-01 -1.921982087118E-01
C27  6.383171203290E-03  2.809070613420E-01 -2.792861653435E-01
C28 -1.069017158334E-01 -5.717462613068E-02 -2.520698287928E-01
H29 -1.999695913062E-01 -3.379958950663E-01 -2.191866412100E-01
H30  7.333462917265E-02  4.441387275750E-01 -2.523623070316E-01
C31 -5.327318155699E-02  1.917807927724E-01 -3.710750783666E-01
C32 -1.663466929074E-01 -1.442009750264E-01 -3.492172621519E-01
H33 -3.297292958808E-02  2.845411760033E-01 -4.176045539200E-01
C34 -1.404103708301E-01 -2.447737687187E-02 -4.065219915607E-01
H35 -2.295797976906E-01 -3.099445070624E-01 -3.753397820731E-01
H36 -1.845900882542E-01 -9.431639758086E-02 -4.796768205930E-01
C37 -4.291500428442E-01 -4.592086167416E-01  3.981777543276E-01
H38 -4.416865295676E-01 -3.876688261022E-01  4.634530031335E-01
C39 -4.864437033764E-01 -3.388603885689E-01  3.293358852171E-01
C40 -3.529391341957E-01  3.212211731677E-01  3.854775800436E-01
H41  4.562318633989E-01 -1.721460688080E-01  3.391738000699E-01
C42 -4.725857891699E-01 -4.300081119061E-01  2.421646350592E-01
H43 -3.093806694020E-01  2.285867170826E-01  4.412456047403E-01
C44 -3.354829659721E-01  2.285777478046E-01  3.042785185043E-01
C45  4.681027381151E-01 -3.124299845892E-01  1.705418208838E-01
C46 -3.946366448656E-01  3.475528134490E-01  2.293529659614E-01
H47 -2.769935986679E-01  6.249842662544E-02  2.948072849520E-01
H48  4.094469084583E-01 -1.463507188841E-01  1.801823742504E-01
C49  4.826295439279E-01 -4.028588036880E-01  8.495422952524E-02
C50 -3.793244048552E-01  2.566778975291E-01  1.457733394347E-01
C51  4.232629724676E-01 -2.846699725730E-01  1.236282011645E-02
C52 -4.386165414110E-01  3.748246054420E-01  7.219590530298E-02
H53 -3.207803353350E-01  9.040647703622E-02  1.362299592496E-01
H54  3.642635595386E-01 -1.186978021780E-01  2.201085179041E-02
C55  4.386165414110E-01 -3.748246054420E-01 -7.219590530298E-02
C56 -4.232629724676E-01  2.846699725730E-01 -1.236282011645E-02
C57  3.793244048552E-01 -2.566778975291E-01 -1.457733394347E-01
C58 -4.826295439279E-01  4.028588036880E-01 -8.495422952524E-02
H59 -3.642635595386E-01  1.186978021780E-01 -2.201085179041E-02
H60  3.207803353350E-01 -9.040647703622E-02 -1.362299592496E-01
C61  3.946366448656E-01 -3.475528134490E-01 -2.293529659614E-01
C62 -4.681027381151E-01  3.124299845892E-01 -1.705418208838E-01
C63  3.354829659721E-01 -2.285777478046E-01 -3.042785185043E-01
C64  4.725857891699E-01  4.300081119061E-01 -2.421646350592E-01
H65 -4.094469084583E-01  1.463507188841E-01 -1.801823742504E-01
H66  2.769935986679E-01 -6.249842662544E-02 -2.948072849520E-01
C67  3.529391341957E-01 -3.212211731677E-01 -3.854775800436E-01
C68  4.864437033764E-01  3.388603885689E-01 -3.293358852171E-01
H69  3.093806694020E-01 -2.285867170826E-01 -4.412456047403E-01
C70  4.291500428442E-01  4.592086167416E-01 -3.981777543276E-01
H71 -4.562318633989E-01  1.721460688080E-01 -3.391738000699E-01
H72  4.416865295676E-01  3.876688261022E-01 -4.634530031335E-01


#===END

data_OPT_STEP_2

_symmetry_space_group_name_H-M 'P 1'
_cell_length_a      7.90000000
_cell_length_b      6.06000000
_cell_length_c     16.01000000
_cell_angle_alpha  101.900002
_cell_angle_beta  112.599998
_cell_angle_gamma   85.800003

loop_
_atom_site_label
_atom_site_fract_x
_atom_site_fract_y
_atom_site_fract_z
C1  1.404103708301E-01  2.447737687187E-02  4.065219915607E-01
H2  1.845900882542E-01  9.431639758086E-02  4.796768205930E-01
C3  1.663466929074E-01  1.442009750264E-01  3.492172621519E-01
C4  5.327318155699E-02 -1.917807927724E-01  3.710750783667E-01
H5  2.295797976906E-01  3.099445070624E-01  3.753397820731E-01
C6  1.069017158334E-01  5.717462613068E-02  2.520698287928E-01
H7  3.297292958808E-02 -2.845411760033E-01  4.176045539200E-01
C8 -6.383171203290E-03 -2.809070613420E-01  2.792861653435E-01
C9  1.316224556740E-01  1.753863672179E-01  1.921982087118E-01
C10  1.684801933013E-02 -1.610309117636E-01  2.160633669602E-01
H11 -7.333462917265E-02 -4.441387275750E-01  2.523623070316E-01
H12  1.999695913062E-01  3.379958950663E-01  2.191866412100E-01
C13  6.786269032788E-02  9.077596000196E-02  9.624626636816E-02
C14 -4.612303436348E-02 -2.463578276270E-01  1.221231861867E-01
C15  9.004614396808E-02  2.102708849519E-01  3.508682730202E-02
C16 -2.450983050207E-02 -1.264301917855E-01  6.004019938409E-02
H17 -1.142912199339E-01 -4.090980171716E-01  9.518240387373E-02
H18  1.591778101145E-01  3.724747088197E-01  6.205824348291E-02
C19  2.450983050207E-02  1.264301917855E-01 -6.004019938409E-02
C20 -9.004614396808E-02 -2.102708849519E-01 -3.508682730202E-02
C21  4.612303436348E-02  2.463578276270E-01 -1.221231861867E-01
C22 -6.786269032788E-02 -9.077596000196E-02 -9.624626636816E-02
H23 -1.591778101145E-01 -3.724747088197E-01 -6.205824348291E-02
H24  1.142912199339E-01  4.090980171716E-01 -9.518240387373E-02
C25 -1.684801933013E-02  1.610309117636E-01 -2.160633669602E-01
C26 -1.316224556740E-01 -1.753863672179E-01 -1.921982087118E-01
C27  6.383171203290E-03  2.809070613420E-01 -2.792861653435E-01
C28 -1.069017158334E-01 -5.717462613068E-02 -2.520698287928E-01
H29 -1.999695913062E-01 -3.379958950663E-01 -2.191866412100E-01
H30  7.333462917265E-02  4.441387275750E-01 -2.523623070316E-01
C31 -5.327318155699E-02  1.917807927724E-01 -3.710750783666E-01
C32 -1.663466929074E-01 -1.442009750264E-01 -3.492172621519E-01
H33 -3.297292958808E-02  2.845411760033E-01 -4.176045539200E-01
C34 -1.404103708301E-01 -2.447737687187E-02 -4.065219915607E-01
H35 -2.295797976906E-01 -3.099445070624E-01 -3.753397820731E-01
H36 -1.845900882542E-01 -9.431639758086E-02 -4.796768205930E-01
C37 -4.291500428442E-01 -4.592086167416E-01  3.981777543276E-01
H38 -4.416865295676E-01 -3.876688261022E-01  4.634530031335E-01
C39 -4.864437033764E-01 -3.388603885689E-01  3.293358852171E-01
C40 -3.529391341957E-01  3.212211731677E-01  3.854775800436E-01
H41  4.562318633989E-01 -1.721460688080E-01  3.391738000699E-01
C42 -4.725857891699E-01 -4.300081119061E-01  2.421646350592E-01
H43 -3.093806694020E-01  2.285867170826E-01  4.412456047403E-01
C44 -3.354829659721E-01  2.285777478046E-01  3.042785185043E-01
C45  4.681027381151E-01 -3.124299845892E-01  1.705418208838E-01
C46 -3.946366448656E-01  3.475528134490E-01  2.293529659614E-01
H47 -2.769935986679E-01  6.249842662544E-02  2.948072849520E-01
H48  4.094469084583E-01 -1.463507188841E-01  1.801823742504E-01
C49  4.826295439279E-01 -4.028588036880E-01  8.495422952524E-02
C50 -3.793244048552E-01  2.566778975291E-01  1.457733394347E-01
C51  4.232629724676E-01 -2.846699725730E-01  1.236282011645E-02
C52 -4.386165414110E-01  3.748246054420E-01  7.219590530298E-02
H53 -3.207803353350E-01  9.040647703622E-02  1.362299592496E-01
H54  3.642635595386E-01 -1.186978021780E-01  2.201085179041E-02
C55  4.386165414110E-01 -3.748246054420E-01 -7.219590530298E-02
C56 -4.232629724676E-01  2.846699725730E-01 -1.236282011645E-02
C57  3.793244048552E-01 -2.566778975291E-01 -1.457733394347E-01
C58 -4.826295439279E-01  4.028588036880E-01 -8.495422952524E-02
H59 -3.642635595386E-01  1.186978021780E-01 -2.201085179041E-02
H60  3.207803353350E-01 -9.040647703622E-02 -1.362299592496E-01
C61  3.946366448656E-01 -3.475528134490E-01 -2.293529659614E-01
C62 -4.681027381151E-01  3.124299845892E-01 -1.705418208838E-01
C63  3.354829659721E-01 -2.285777478046E-01 -3.042785185043E-01
C64  4.725857891699E-01  4.300081119061E-01 -2.421646350592E-01
H65 -4.094469084583E-01  1.463507188841E-01 -1.801823742504E-01
H66  2.769935986679E-01 -6.249842662544E-02 -2.948072849520E-01
C67  3.529391341957E-01 -3.212211731677E-01 -3.854775800436E-01
C68  4.864437033764E-01  3.388603885689E-01 -3.293358852171E-01
H69  3.093806694020E-01 -2.285867170826E-01 -4.412456047403E-01
C70  4.291500428442E-01  4.592086167416E-01 -3.981777543276E-01
H71 -4.562318633989E-01  1.721460688080E-01 -3.391738000699E-01
H72  4.416865295676E-01  3.876688261022E-01 -4.634530031335E-01


#===END
