###############################################################################
#
#                    CRYSTAL17 CIF FILE
#
###############################################################################

data_OPT_STEP_1

_symmetry_space_group_name_H-M 'P 1'
_cell_length_a      7.90000000
_cell_length_b      6.06000000
_cell_length_c     16.01000000
_cell_angle_alpha  101.900002
_cell_angle_beta  112.599998
_cell_angle_gamma   85.800003

loop_
_atom_site_label
_atom_site_fract_x
_atom_site_fract_y
_atom_site_fract_z
C1  1.211055468766E-01  4.584406255275E-02  4.052972925022E-01
H2  1.660740778877E-01  1.168784996410E-01  4.783250711970E-01
C3  1.466991743376E-01  1.633627409839E-01  3.472178108125E-01
C4  3.496855042126E-02 -1.711845716926E-01  3.709239759221E-01
H5  2.102243220952E-01  3.290828310451E-01  3.727061726782E-01
C6  8.884850001823E-02  7.275574872387E-02  2.504342681112E-01
H7  1.532205719507E-02 -2.622788092965E-01  4.181374404113E-01
C8 -2.350476905659E-02 -2.633777886840E-01  2.794724049451E-01
C9  1.150272544770E-01  1.873769626354E-01  1.898996430645E-01
C10  6.395371424088E-04 -1.467004332449E-01  2.156023960829E-01
H11 -8.931565842796E-02 -4.273631749826E-01  2.533355793710E-01
H12  1.823655146989E-01  3.508227980229E-01  2.160154325296E-01
C13  5.594754067482E-02  9.717744418377E-02  9.457935374471E-02
C14 -5.812064505681E-02 -2.371699403801E-01  1.222394879231E-01
C15  8.132244059044E-02  2.119432889906E-01  3.290870407648E-02
C16 -3.364053835103E-02 -1.217873869002E-01  5.963514722149E-02
H17 -1.242142896076E-01 -4.011653586371E-01  9.625153149079E-02
H18  1.486983797021E-01  3.753355306319E-01  5.893413206269E-02
C19  2.179772602671E-02  1.217337833524E-01 -6.147527687089E-02
C20 -9.309331567270E-02 -2.120731295560E-01 -3.477307855678E-02
C21  4.672590148825E-02  2.369995184611E-01 -1.240390323167E-01
C22 -6.778740613150E-02 -9.729208205605E-02 -9.643915731887E-02
H23 -1.597237016833E-01 -3.757650175647E-01 -6.073092281145E-02
H24  1.133782315496E-01  4.008187872253E-01 -9.799473760891E-02
C25 -1.178221467727E-02  1.463902700355E-01 -2.173559297685E-01
C26 -1.264854816422E-01 -1.876857839244E-01 -1.917561378521E-01
C27  1.311183845417E-02  2.627759498094E-01 -2.811448576181E-01
C28 -1.000444470050E-01 -7.312175981703E-02 -2.522158233606E-01
H29 -1.931557916823E-01 -3.513905082703E-01 -2.178712523800E-01
H30  7.963506893676E-02  4.265048453418E-01 -2.549608063580E-01
C31 -4.517756151944E-02  1.703358290320E-01 -3.725552537267E-01
C32 -1.574306253916E-01 -1.640214516711E-01 -3.489704754499E-01
H33 -2.497309597343E-02  2.610353131247E-01 -4.197399428665E-01
C34 -1.315127181624E-01 -4.658352495091E-02 -4.069751452314E-01
H35 -2.204030962302E-01 -3.299885276929E-01 -3.743944961556E-01
H36 -1.758359085633E-01 -1.177124960346E-01 -4.799666853404E-01
C37 -4.424702721389E-01 -4.295903494410E-01  3.976903146208E-01
H38 -4.575539937846E-01 -3.539672980817E-01  4.619242385371E-01
C39 -4.981618597116E-01 -3.150089759118E-01  3.270662441164E-01
C40 -3.634323841625E-01  3.515254730747E-01  3.884106560899E-01
H41  4.426320128820E-01 -1.486321422163E-01  3.344708687761E-01
C42 -4.799289645078E-01 -4.114558460821E-01  2.414146367724E-01
H43 -3.194983372354E-01  2.641448552959E-01  4.458044773917E-01
C44 -3.432100521392E-01  2.531552713313E-01  3.084810474880E-01
C45  4.644945131837E-01 -2.990612661340E-01  1.682932238120E-01
C46 -4.007928939265E-01  3.659547845033E-01  2.318428288853E-01
H47 -2.831622210302E-01  8.739733473700E-02  3.013133019042E-01
H48  4.051312783195E-01 -1.326846176520E-01  1.755397449714E-01
C49  4.837125846915E-01 -3.950680891177E-01  8.429233788797E-02
C50 -3.818493644815E-01  2.692567247877E-01  1.497152963515E-01
C51  4.289553553927E-01 -2.824932277661E-01  1.017496543263E-02
C52 -4.373627254303E-01  3.819488571849E-01  7.473733000288E-02
H53 -3.228493841056E-01  1.027505194815E-01  1.424731913201E-01
H54  3.696899694112E-01 -1.160174117582E-01  1.726695522913E-02
C55  4.487864676423E-01 -3.789803392509E-01 -7.274818446432E-02
C56 -4.175984482669E-01  2.855411656443E-01 -8.150606919668E-03
C57  3.934280762135E-01 -2.672165688527E-01 -1.480825291907E-01
C58 -4.724383514433E-01  3.979623281251E-01 -8.218545951431E-02
H59 -3.588431530126E-01  1.189349195252E-01 -1.534123365987E-02
H60  3.340438462104E-01 -1.007624916999E-01 -1.412624210095E-01
C61  4.123709497957E-01 -3.650698370053E-01 -2.301343719051E-01
C62 -4.536069555333E-01  3.006488207210E-01 -1.660992996086E-01
C63  3.551837334900E-01 -2.537475177339E-01 -3.072353609004E-01
C64  4.908425049424E-01  4.118527025479E-01 -2.394624182646E-01
H65 -3.950929718749E-01  1.338634561914E-01 -1.731584965554E-01
H66  2.950708470284E-01 -8.780588192872E-02 -3.006080008720E-01
C67  3.748308857599E-01 -3.541060695869E-01 -3.871185634433E-01
C68 -4.919259039950E-01  3.131029957272E-01 -3.251254957260E-01
H69  3.306275174524E-01 -2.678321130093E-01 -4.448742796395E-01
C70  4.525213889825E-01  4.260968756370E-01 -3.961807286492E-01
H71 -4.339744360894E-01  1.460522525403E-01 -3.322744931593E-01
H72  4.661319587442E-01  3.484912070945E-01 -4.605846602819E-01


#===END

data_OPT_STEP_2

_symmetry_space_group_name_H-M 'P 1'
_cell_length_a      7.90000000
_cell_length_b      6.06000000
_cell_length_c     16.01000000
_cell_angle_alpha  101.900002
_cell_angle_beta  112.599998
_cell_angle_gamma   85.800003

loop_
_atom_site_label
_atom_site_fract_x
_atom_site_fract_y
_atom_site_fract_z
C1  1.211055468766E-01  4.584406255275E-02  4.052972925022E-01
H2  1.660740778877E-01  1.168784996410E-01  4.783250711970E-01
C3  1.466991743376E-01  1.633627409839E-01  3.472178108125E-01
C4  3.496855042126E-02 -1.711845716926E-01  3.709239759221E-01
H5  2.102243220952E-01  3.290828310451E-01  3.727061726782E-01
C6  8.884850001823E-02  7.275574872387E-02  2.504342681112E-01
H7  1.532205719507E-02 -2.622788092965E-01  4.181374404113E-01
C8 -2.350476905659E-02 -2.633777886840E-01  2.794724049451E-01
C9  1.150272544770E-01  1.873769626354E-01  1.898996430645E-01
C10  6.395371424088E-04 -1.467004332449E-01  2.156023960829E-01
H11 -8.931565842796E-02 -4.273631749826E-01  2.533355793710E-01
H12  1.823655146989E-01  3.508227980229E-01  2.160154325296E-01
C13  5.594754067482E-02  9.717744418377E-02  9.457935374471E-02
C14 -5.812064505681E-02 -2.371699403801E-01  1.222394879231E-01
C15  8.132244059044E-02  2.119432889906E-01  3.290870407648E-02
C16 -3.364053835103E-02 -1.217873869002E-01  5.963514722149E-02
H17 -1.242142896076E-01 -4.011653586371E-01  9.625153149079E-02
H18  1.486983797021E-01  3.753355306319E-01  5.893413206269E-02
C19  2.179772602671E-02  1.217337833524E-01 -6.147527687089E-02
C20 -9.309331567270E-02 -2.120731295560E-01 -3.477307855678E-02
C21  4.672590148825E-02  2.369995184611E-01 -1.240390323167E-01
C22 -6.778740613150E-02 -9.729208205605E-02 -9.643915731887E-02
H23 -1.597237016833E-01 -3.757650175647E-01 -6.073092281145E-02
H24  1.133782315496E-01  4.008187872253E-01 -9.799473760891E-02
C25 -1.178221467727E-02  1.463902700355E-01 -2.173559297685E-01
C26 -1.264854816422E-01 -1.876857839244E-01 -1.917561378521E-01
C27  1.311183845417E-02  2.627759498094E-01 -2.811448576181E-01
C28 -1.000444470050E-01 -7.312175981703E-02 -2.522158233606E-01
H29 -1.931557916823E-01 -3.513905082703E-01 -2.178712523800E-01
H30  7.963506893676E-02  4.265048453418E-01 -2.549608063580E-01
C31 -4.517756151944E-02  1.703358290320E-01 -3.725552537267E-01
C32 -1.574306253916E-01 -1.640214516711E-01 -3.489704754499E-01
H33 -2.497309597343E-02  2.610353131247E-01 -4.197399428665E-01
C34 -1.315127181624E-01 -4.658352495091E-02 -4.069751452314E-01
H35 -2.204030962302E-01 -3.299885276929E-01 -3.743944961556E-01
H36 -1.758359085633E-01 -1.177124960346E-01 -4.799666853404E-01
C37 -4.424702721389E-01 -4.295903494410E-01  3.976903146208E-01
H38 -4.575539937846E-01 -3.539672980817E-01  4.619242385371E-01
C39 -4.981618597116E-01 -3.150089759118E-01  3.270662441164E-01
C40 -3.634323841625E-01  3.515254730747E-01  3.884106560899E-01
H41  4.426320128820E-01 -1.486321422163E-01  3.344708687761E-01
C42 -4.799289645078E-01 -4.114558460821E-01  2.414146367724E-01
H43 -3.194983372354E-01  2.641448552959E-01  4.458044773917E-01
C44 -3.432100521392E-01  2.531552713313E-01  3.084810474880E-01
C45  4.644945131837E-01 -2.990612661340E-01  1.682932238120E-01
C46 -4.007928939265E-01  3.659547845033E-01  2.318428288853E-01
H47 -2.831622210302E-01  8.739733473700E-02  3.013133019042E-01
H48  4.051312783195E-01 -1.326846176520E-01  1.755397449714E-01
C49  4.837125846915E-01 -3.950680891177E-01  8.429233788797E-02
C50 -3.818493644815E-01  2.692567247877E-01  1.497152963515E-01
C51  4.289553553927E-01 -2.824932277661E-01  1.017496543263E-02
C52 -4.373627254303E-01  3.819488571849E-01  7.473733000288E-02
H53 -3.228493841056E-01  1.027505194815E-01  1.424731913201E-01
H54  3.696899694112E-01 -1.160174117582E-01  1.726695522913E-02
C55  4.487864676423E-01 -3.789803392509E-01 -7.274818446432E-02
C56 -4.175984482669E-01  2.855411656443E-01 -8.150606919668E-03
C57  3.934280762135E-01 -2.672165688527E-01 -1.480825291907E-01
C58 -4.724383514433E-01  3.979623281251E-01 -8.218545951431E-02
H59 -3.588431530126E-01  1.189349195252E-01 -1.534123365987E-02
H60  3.340438462104E-01 -1.007624916999E-01 -1.412624210095E-01
C61  4.123709497957E-01 -3.650698370053E-01 -2.301343719051E-01
C62 -4.536069555333E-01  3.006488207210E-01 -1.660992996086E-01
C63  3.551837334900E-01 -2.537475177339E-01 -3.072353609004E-01
C64  4.908425049424E-01  4.118527025479E-01 -2.394624182646E-01
H65 -3.950929718749E-01  1.338634561914E-01 -1.731584965554E-01
H66  2.950708470284E-01 -8.780588192872E-02 -3.006080008720E-01
C67  3.748308857599E-01 -3.541060695869E-01 -3.871185634433E-01
C68 -4.919259039950E-01  3.131029957272E-01 -3.251254957260E-01
H69  3.306275174524E-01 -2.678321130093E-01 -4.448742796395E-01
C70  4.525213889825E-01  4.260968756370E-01 -3.961807286492E-01
H71 -4.339744360894E-01  1.460522525403E-01 -3.322744931593E-01
H72  4.661319587442E-01  3.484912070945E-01 -4.605846602819E-01


#===END
