###############################################################################
#
#                    CRYSTAL17 CIF FILE
#
###############################################################################

data_OPT_STEP_1

_symmetry_space_group_name_H-M 'P 1'
_cell_length_a      7.90000000
_cell_length_b      6.06000000
_cell_length_c     16.01000000
_cell_angle_alpha  101.900002
_cell_angle_beta  112.599998
_cell_angle_gamma   85.800003

loop_
_atom_site_label
_atom_site_fract_x
_atom_site_fract_y
_atom_site_fract_z
C1  1.292778358698E-01  4.353578609628E-02  4.064168145743E-01
H2  1.764678798841E-01  1.127275614902E-01  4.796727616657E-01
C3  1.565728616175E-01  1.607422243973E-01  3.486822770838E-01
C4  3.655172737507E-02 -1.695510606136E-01  3.713608787252E-01
H5  2.229186428182E-01  3.247921582431E-01  3.746027267572E-01
C6  9.526433342861E-02  7.280176816430E-02  2.515348470892E-01
H7  1.346999761226E-02 -2.587477691650E-01  4.182348446675E-01
C8 -2.264164132745E-02 -2.607451175056E-01  2.798285565583E-01
C9  1.180633260609E-01  1.896653993924E-01  1.907403903947E-01
C10  6.273077740360E-03 -1.461820934186E-01  2.165510409336E-01
H11 -9.221235951287E-02 -4.225350332034E-01  2.531735747030E-01
H12  1.834431849341E-01  3.542661555312E-01  2.167538790168E-01
C13  5.899226303625E-02  9.946902660377E-02  9.535731941330E-02
C14 -4.934184774243E-02 -2.384042887181E-01  1.234673125824E-01
C15  8.026521053292E-02  2.162225060632E-01  3.319761822645E-02
C16 -2.432945543828E-02 -1.233501108836E-01  6.090225800865E-02
H17 -1.148510555169E-01 -4.027710374780E-01  9.754466442357E-02
H18  1.436497885259E-01  3.820019793651E-01  5.870656296739E-02
C19  2.432945543828E-02  1.233501108836E-01 -6.090225800865E-02
C20 -8.026521053292E-02 -2.162225060632E-01 -3.319761822645E-02
C21  4.934184774243E-02  2.384042887181E-01 -1.234673125824E-01
C22 -5.899226303625E-02 -9.946902660377E-02 -9.535731941330E-02
H23 -1.436497885259E-01 -3.820019793651E-01 -5.870656296739E-02
H24  1.148510555169E-01  4.027710374780E-01 -9.754466442357E-02
C25 -6.273077740360E-03  1.461820934186E-01 -2.165510409336E-01
C26 -1.180633260609E-01 -1.896653993924E-01 -1.907403903947E-01
C27  2.264164132745E-02  2.607451175056E-01 -2.798285565583E-01
C28 -9.526433342861E-02 -7.280176816430E-02 -2.515348470892E-01
H29 -1.834431849341E-01 -3.542661555312E-01 -2.167538790168E-01
H30  9.221235951287E-02  4.225350332034E-01 -2.531735747030E-01
C31 -3.655172737507E-02  1.695510606136E-01 -3.713608787252E-01
C32 -1.565728616175E-01 -1.607422243973E-01 -3.486822770838E-01
H33 -1.346999761226E-02  2.587477691650E-01 -4.182348446675E-01
C34 -1.292778358698E-01 -4.353578609628E-02 -4.064168145743E-01
H35 -2.229186428182E-01 -3.247921582431E-01 -3.746027267572E-01
H36 -1.764678798841E-01 -1.127275614902E-01 -4.796727616657E-01
C37 -4.451162181497E-01 -4.260979130829E-01  3.973715089916E-01
H38 -4.576816250213E-01 -3.483089021045E-01  4.620076388890E-01
C39 -4.987550880733E-01 -3.114257960851E-01  3.268412942705E-01
C40 -3.725659612465E-01  3.513149029461E-01  3.871882798911E-01
H41  4.455864124971E-01 -1.430741858692E-01  3.345920996098E-01
C42 -4.842455587557E-01 -4.109886583920E-01  2.405936564207E-01
H43 -3.315225562781E-01  2.629551267551E-01  4.442444903664E-01
C44 -3.528131123084E-01  2.517006954359E-01  3.072620183218E-01
C45  4.569302296854E-01 -3.010405734013E-01  1.667264529781E-01
C46 -4.060972240371E-01  3.658285222570E-01  2.310904998684E-01
H47 -2.954238535926E-01  8.433992234785E-02  2.999125606203E-01
H48  3.964414926587E-01 -1.353261515476E-01  1.735643070242E-01
C49  4.755495972775E-01 -3.979703675054E-01  8.271295656952E-02
C50 -3.841692365830E-01  2.700763927259E-01  1.495660723002E-01
C51  4.166171584630E-01 -2.876035050895E-01  7.889739961040E-03
C52 -4.395863475302E-01  3.823111914821E-01  7.439649559825E-02
H53 -3.241340767536E-01  1.040361296911E-01  1.426941081025E-01
H54  3.541398186548E-01 -1.230082436276E-01  1.439463694209E-02
C55  4.395863475302E-01 -3.823111914821E-01 -7.439649559825E-02
C56 -4.166171584630E-01  2.876035050895E-01 -7.889739961040E-03
C57  3.841692365830E-01 -2.700763927259E-01 -1.495660723002E-01
C58 -4.755495972775E-01  3.979703675054E-01 -8.271295656952E-02
H59 -3.541398186548E-01  1.230082436276E-01 -1.439463694209E-02
H60  3.241340767536E-01 -1.040361296911E-01 -1.426941081025E-01
C61  4.060972240371E-01 -3.658285222570E-01 -2.310904998684E-01
C62 -4.569302296854E-01  3.010405734013E-01 -1.667264529781E-01
C63  3.528131123084E-01 -2.517006954359E-01 -3.072620183218E-01
C64  4.842455587557E-01  4.109886583920E-01 -2.405936564207E-01
H65 -3.964414926587E-01  1.353261515476E-01 -1.735643070242E-01
H66  2.954238535926E-01 -8.433992234785E-02 -2.999125606203E-01
C67  3.725659612465E-01 -3.513149029461E-01 -3.871882798911E-01
C68  4.987550880733E-01  3.114257960851E-01 -3.268412942705E-01
H69  3.315225562781E-01 -2.629551267551E-01 -4.442444903664E-01
C70  4.451162181497E-01  4.260979130829E-01 -3.973715089916E-01
H71 -4.455864124971E-01  1.430741858692E-01 -3.345920996098E-01
H72  4.576816250213E-01  3.483089021045E-01 -4.620076388890E-01


#===END

data_OPT_STEP_2

_symmetry_space_group_name_H-M 'P 1'
_cell_length_a      7.90000000
_cell_length_b      6.06000000
_cell_length_c     16.01000000
_cell_angle_alpha  101.900002
_cell_angle_beta  112.599998
_cell_angle_gamma   85.800003

loop_
_atom_site_label
_atom_site_fract_x
_atom_site_fract_y
_atom_site_fract_z
C1  1.292778358698E-01  4.353578609628E-02  4.064168145743E-01
H2  1.764678798841E-01  1.127275614902E-01  4.796727616657E-01
C3  1.565728616175E-01  1.607422243973E-01  3.486822770838E-01
C4  3.655172737507E-02 -1.695510606136E-01  3.713608787252E-01
H5  2.229186428182E-01  3.247921582431E-01  3.746027267572E-01
C6  9.526433342861E-02  7.280176816430E-02  2.515348470892E-01
H7  1.346999761226E-02 -2.587477691650E-01  4.182348446675E-01
C8 -2.264164132745E-02 -2.607451175056E-01  2.798285565583E-01
C9  1.180633260609E-01  1.896653993924E-01  1.907403903947E-01
C10  6.273077740360E-03 -1.461820934186E-01  2.165510409336E-01
H11 -9.221235951287E-02 -4.225350332034E-01  2.531735747030E-01
H12  1.834431849341E-01  3.542661555312E-01  2.167538790168E-01
C13  5.899226303625E-02  9.946902660377E-02  9.535731941330E-02
C14 -4.934184774243E-02 -2.384042887181E-01  1.234673125824E-01
C15  8.026521053292E-02  2.162225060632E-01  3.319761822645E-02
C16 -2.432945543828E-02 -1.233501108836E-01  6.090225800865E-02
H17 -1.148510555169E-01 -4.027710374780E-01  9.754466442357E-02
H18  1.436497885259E-01  3.820019793651E-01  5.870656296739E-02
C19  2.432945543828E-02  1.233501108836E-01 -6.090225800865E-02
C20 -8.026521053292E-02 -2.162225060632E-01 -3.319761822645E-02
C21  4.934184774243E-02  2.384042887181E-01 -1.234673125824E-01
C22 -5.899226303625E-02 -9.946902660377E-02 -9.535731941330E-02
H23 -1.436497885259E-01 -3.820019793651E-01 -5.870656296739E-02
H24  1.148510555169E-01  4.027710374780E-01 -9.754466442357E-02
C25 -6.273077740360E-03  1.461820934186E-01 -2.165510409336E-01
C26 -1.180633260609E-01 -1.896653993924E-01 -1.907403903947E-01
C27  2.264164132745E-02  2.607451175056E-01 -2.798285565583E-01
C28 -9.526433342861E-02 -7.280176816430E-02 -2.515348470892E-01
H29 -1.834431849341E-01 -3.542661555312E-01 -2.167538790168E-01
H30  9.221235951287E-02  4.225350332034E-01 -2.531735747030E-01
C31 -3.655172737507E-02  1.695510606136E-01 -3.713608787252E-01
C32 -1.565728616175E-01 -1.607422243973E-01 -3.486822770838E-01
H33 -1.346999761226E-02  2.587477691650E-01 -4.182348446675E-01
C34 -1.292778358698E-01 -4.353578609628E-02 -4.064168145743E-01
H35 -2.229186428182E-01 -3.247921582431E-01 -3.746027267572E-01
H36 -1.764678798841E-01 -1.127275614902E-01 -4.796727616657E-01
C37 -4.451162181497E-01 -4.260979130829E-01  3.973715089916E-01
H38 -4.576816250213E-01 -3.483089021045E-01  4.620076388890E-01
C39 -4.987550880733E-01 -3.114257960851E-01  3.268412942705E-01
C40 -3.725659612465E-01  3.513149029461E-01  3.871882798911E-01
H41  4.455864124971E-01 -1.430741858692E-01  3.345920996098E-01
C42 -4.842455587557E-01 -4.109886583920E-01  2.405936564207E-01
H43 -3.315225562781E-01  2.629551267551E-01  4.442444903664E-01
C44 -3.528131123084E-01  2.517006954359E-01  3.072620183218E-01
C45  4.569302296854E-01 -3.010405734013E-01  1.667264529781E-01
C46 -4.060972240371E-01  3.658285222570E-01  2.310904998684E-01
H47 -2.954238535926E-01  8.433992234785E-02  2.999125606203E-01
H48  3.964414926587E-01 -1.353261515476E-01  1.735643070242E-01
C49  4.755495972775E-01 -3.979703675054E-01  8.271295656952E-02
C50 -3.841692365830E-01  2.700763927259E-01  1.495660723002E-01
C51  4.166171584630E-01 -2.876035050895E-01  7.889739961040E-03
C52 -4.395863475302E-01  3.823111914821E-01  7.439649559825E-02
H53 -3.241340767536E-01  1.040361296911E-01  1.426941081025E-01
H54  3.541398186548E-01 -1.230082436276E-01  1.439463694209E-02
C55  4.395863475302E-01 -3.823111914821E-01 -7.439649559825E-02
C56 -4.166171584630E-01  2.876035050895E-01 -7.889739961040E-03
C57  3.841692365830E-01 -2.700763927259E-01 -1.495660723002E-01
C58 -4.755495972775E-01  3.979703675054E-01 -8.271295656952E-02
H59 -3.541398186548E-01  1.230082436276E-01 -1.439463694209E-02
H60  3.241340767536E-01 -1.040361296911E-01 -1.426941081025E-01
C61  4.060972240371E-01 -3.658285222570E-01 -2.310904998684E-01
C62 -4.569302296854E-01  3.010405734013E-01 -1.667264529781E-01
C63  3.528131123084E-01 -2.517006954359E-01 -3.072620183218E-01
C64  4.842455587557E-01  4.109886583920E-01 -2.405936564207E-01
H65 -3.964414926587E-01  1.353261515476E-01 -1.735643070242E-01
H66  2.954238535926E-01 -8.433992234785E-02 -2.999125606203E-01
C67  3.725659612465E-01 -3.513149029461E-01 -3.871882798911E-01
C68  4.987550880733E-01  3.114257960851E-01 -3.268412942705E-01
H69  3.315225562781E-01 -2.629551267551E-01 -4.442444903664E-01
C70  4.451162181497E-01  4.260979130829E-01 -3.973715089916E-01
H71 -4.455864124971E-01  1.430741858692E-01 -3.345920996098E-01
H72  4.576816250213E-01  3.483089021045E-01 -4.620076388890E-01


#===END
