###############################################################################
#
#                    CRYSTAL17 CIF FILE
#
###############################################################################

data_OPT_STEP_1

_symmetry_space_group_name_H-M 'P 1'
_cell_length_a      7.90000000
_cell_length_b      6.06000000
_cell_length_c     16.01000000
_cell_angle_alpha  101.900002
_cell_angle_beta  112.599998
_cell_angle_gamma   85.800003

loop_
_atom_site_label
_atom_site_fract_x
_atom_site_fract_y
_atom_site_fract_z
C1  1.195929732939E-01  5.035616729155E-02  4.055403022813E-01
H2  1.597623948646E-01  1.241987971717E-01  4.781499945354E-01
C3  1.523888158848E-01  1.635885164526E-01  3.480678609999E-01
C4  3.310378893095E-02 -1.665245810647E-01  3.711464913612E-01
H5  2.160554905900E-01  3.292038670429E-01  3.734960402447E-01
C6  9.974809995134E-02  6.973381350284E-02  2.517385482734E-01
H7  8.043084786907E-03 -2.544363206827E-01  4.178908421584E-01
C8 -1.837625782468E-02 -2.630567254817E-01  2.802896052934E-01
C9  1.279307623294E-01  1.832143515748E-01  1.914149013691E-01
C10  1.120408645793E-02 -1.495688667178E-01  2.168831717006E-01
H11 -8.431192489980E-02 -4.270746183239E-01  2.541543785189E-01
H12  1.947108378199E-01  3.468571195363E-01  2.175082955383E-01
C13  6.690001160772E-02  9.416359711154E-02  9.591744785519E-02
C14 -4.639124591874E-02 -2.407690086853E-01  1.236300013735E-01
C15  8.820339111671E-02  2.113596677066E-01  3.390270608425E-02
C16 -2.358256001270E-02 -1.242471975841E-01  6.089981485389E-02
H17 -1.135346539325E-01 -4.041893592062E-01  9.756351927618E-02
H18  1.559602576729E-01  3.743864942773E-01  5.993661307032E-02
C19  2.358256001270E-02  1.242471975841E-01 -6.089981485389E-02
C20 -8.820339111671E-02 -2.113596677066E-01 -3.390270608425E-02
C21  4.639124591874E-02  2.407690086853E-01 -1.236300013735E-01
C22 -6.690001160772E-02 -9.416359711154E-02 -9.591744785519E-02
H23 -1.559602576729E-01 -3.743864942773E-01 -5.993661307032E-02
H24  1.135346539325E-01  4.041893592062E-01 -9.756351927618E-02
C25 -1.120408645793E-02  1.495688667178E-01 -2.168831717006E-01
C26 -1.279307623294E-01 -1.832143515748E-01 -1.914149013691E-01
C27  1.837625782468E-02  2.630567254817E-01 -2.802896052934E-01
C28 -9.974809995134E-02 -6.973381350284E-02 -2.517385482734E-01
H29 -1.947108378199E-01 -3.468571195363E-01 -2.175082955383E-01
H30  8.431192489980E-02  4.270746183239E-01 -2.541543785189E-01
C31 -3.310378893095E-02  1.665245810647E-01 -3.711464913612E-01
C32 -1.523888158848E-01 -1.635885164526E-01 -3.480678609999E-01
H33 -8.043084786907E-03  2.544363206827E-01 -4.178908421584E-01
C34 -1.195929732939E-01 -5.035616729155E-02 -4.055403022813E-01
H35 -2.160554905900E-01 -3.292038670429E-01 -3.734960402447E-01
H36 -1.597623948646E-01 -1.241987971717E-01 -4.781499945354E-01
C37 -4.486368033932E-01 -4.278635012028E-01  3.967528603202E-01
H38 -4.629429921253E-01 -3.510168553858E-01  4.610688910800E-01
C39  4.918169840862E-01 -3.164647192166E-01  3.251039389266E-01
C40 -3.660173781948E-01  3.551107444105E-01  3.884424906219E-01
H41  4.304268707877E-01 -1.513290831484E-01  3.317910237389E-01
C42 -4.893748123327E-01 -4.136993832049E-01  2.396680033939E-01
H43 -3.191552319184E-01  2.699111754140E-01  4.465801725498E-01
C44 -3.460048677185E-01  2.556349663561E-01  3.085490143859E-01
C45  4.531839320289E-01 -3.030702567809E-01  1.660437434538E-01
C46 -4.062620597402E-01  3.658509772773E-01  2.310775422140E-01
H47 -2.837133859445E-01  9.101747416749E-02  3.020954051218E-01
H48  3.919758870192E-01 -1.378033961298E-01  1.727488613546E-01
C49  4.748201377871E-01 -3.983413500192E-01  8.259788440804E-02
C50 -3.852692444115E-01  2.695301216512E-01  1.493775165679E-01
C51  4.190534395689E-01 -2.862981881043E-01  8.353201180688E-03
C52 -4.419479732053E-01  3.810197839709E-01  7.395624288894E-02
H53 -3.233258035979E-01  1.044957018338E-01  1.428971102381E-01
H54  3.573760084242E-01 -1.212264791760E-01  1.499343992589E-02
C55  4.419479732053E-01 -3.810197839709E-01 -7.395624288894E-02
C56 -4.190534395689E-01  2.862981881043E-01 -8.353201180688E-03
C57  3.852692444115E-01 -2.695301216512E-01 -1.493775165679E-01
C58 -4.748201377871E-01  3.983413500192E-01 -8.259788440804E-02
H59 -3.573760084242E-01  1.212264791760E-01 -1.499343992589E-02
H60  3.233258035979E-01 -1.044957018338E-01 -1.428971102381E-01
C61  4.062620597402E-01 -3.658509772773E-01 -2.310775422140E-01
C62 -4.531839320289E-01  3.030702567809E-01 -1.660437434538E-01
C63  3.460048677185E-01 -2.556349663561E-01 -3.085490143859E-01
C64  4.893748123327E-01  4.136993832049E-01 -2.396680033939E-01
H65 -3.919758870192E-01  1.378033961298E-01 -1.727488613546E-01
H66  2.837133859445E-01 -9.101747416749E-02 -3.020954051218E-01
C67  3.660173781948E-01 -3.551107444105E-01 -3.884424906219E-01
C68 -4.918169840862E-01  3.164647192166E-01 -3.251039389266E-01
H69  3.191552319184E-01 -2.699111754140E-01 -4.465801725498E-01
C70  4.486368033932E-01  4.278635012028E-01 -3.967528603202E-01
H71 -4.304268707877E-01  1.513290831484E-01 -3.317910237389E-01
H72  4.629429921253E-01  3.510168553858E-01 -4.610688910800E-01


#===END

data_OPT_STEP_2

_symmetry_space_group_name_H-M 'P 1'
_cell_length_a      7.90000000
_cell_length_b      6.06000000
_cell_length_c     16.01000000
_cell_angle_alpha  101.900002
_cell_angle_beta  112.599998
_cell_angle_gamma   85.800003

loop_
_atom_site_label
_atom_site_fract_x
_atom_site_fract_y
_atom_site_fract_z
C1  1.195929732939E-01  5.035616729155E-02  4.055403022813E-01
H2  1.597623948646E-01  1.241987971717E-01  4.781499945354E-01
C3  1.523888158848E-01  1.635885164526E-01  3.480678609999E-01
C4  3.310378893095E-02 -1.665245810647E-01  3.711464913612E-01
H5  2.160554905900E-01  3.292038670429E-01  3.734960402447E-01
C6  9.974809995134E-02  6.973381350284E-02  2.517385482734E-01
H7  8.043084786907E-03 -2.544363206827E-01  4.178908421584E-01
C8 -1.837625782468E-02 -2.630567254817E-01  2.802896052934E-01
C9  1.279307623294E-01  1.832143515748E-01  1.914149013691E-01
C10  1.120408645793E-02 -1.495688667178E-01  2.168831717006E-01
H11 -8.431192489980E-02 -4.270746183239E-01  2.541543785189E-01
H12  1.947108378199E-01  3.468571195363E-01  2.175082955383E-01
C13  6.690001160772E-02  9.416359711154E-02  9.591744785519E-02
C14 -4.639124591874E-02 -2.407690086853E-01  1.236300013735E-01
C15  8.820339111671E-02  2.113596677066E-01  3.390270608425E-02
C16 -2.358256001270E-02 -1.242471975841E-01  6.089981485389E-02
H17 -1.135346539325E-01 -4.041893592062E-01  9.756351927618E-02
H18  1.559602576729E-01  3.743864942773E-01  5.993661307032E-02
C19  2.358256001270E-02  1.242471975841E-01 -6.089981485389E-02
C20 -8.820339111671E-02 -2.113596677066E-01 -3.390270608425E-02
C21  4.639124591874E-02  2.407690086853E-01 -1.236300013735E-01
C22 -6.690001160772E-02 -9.416359711154E-02 -9.591744785519E-02
H23 -1.559602576729E-01 -3.743864942773E-01 -5.993661307032E-02
H24  1.135346539325E-01  4.041893592062E-01 -9.756351927618E-02
C25 -1.120408645793E-02  1.495688667178E-01 -2.168831717006E-01
C26 -1.279307623294E-01 -1.832143515748E-01 -1.914149013691E-01
C27  1.837625782468E-02  2.630567254817E-01 -2.802896052934E-01
C28 -9.974809995134E-02 -6.973381350284E-02 -2.517385482734E-01
H29 -1.947108378199E-01 -3.468571195363E-01 -2.175082955383E-01
H30  8.431192489980E-02  4.270746183239E-01 -2.541543785189E-01
C31 -3.310378893095E-02  1.665245810647E-01 -3.711464913612E-01
C32 -1.523888158848E-01 -1.635885164526E-01 -3.480678609999E-01
H33 -8.043084786907E-03  2.544363206827E-01 -4.178908421584E-01
C34 -1.195929732939E-01 -5.035616729155E-02 -4.055403022813E-01
H35 -2.160554905900E-01 -3.292038670429E-01 -3.734960402447E-01
H36 -1.597623948646E-01 -1.241987971717E-01 -4.781499945354E-01
C37 -4.486368033932E-01 -4.278635012028E-01  3.967528603202E-01
H38 -4.629429921253E-01 -3.510168553858E-01  4.610688910800E-01
C39  4.918169840862E-01 -3.164647192166E-01  3.251039389266E-01
C40 -3.660173781948E-01  3.551107444105E-01  3.884424906219E-01
H41  4.304268707877E-01 -1.513290831484E-01  3.317910237389E-01
C42 -4.893748123327E-01 -4.136993832049E-01  2.396680033939E-01
H43 -3.191552319184E-01  2.699111754140E-01  4.465801725498E-01
C44 -3.460048677185E-01  2.556349663561E-01  3.085490143859E-01
C45  4.531839320289E-01 -3.030702567809E-01  1.660437434538E-01
C46 -4.062620597402E-01  3.658509772773E-01  2.310775422140E-01
H47 -2.837133859445E-01  9.101747416749E-02  3.020954051218E-01
H48  3.919758870192E-01 -1.378033961298E-01  1.727488613546E-01
C49  4.748201377871E-01 -3.983413500192E-01  8.259788440804E-02
C50 -3.852692444115E-01  2.695301216512E-01  1.493775165679E-01
C51  4.190534395689E-01 -2.862981881043E-01  8.353201180688E-03
C52 -4.419479732053E-01  3.810197839709E-01  7.395624288894E-02
H53 -3.233258035979E-01  1.044957018338E-01  1.428971102381E-01
H54  3.573760084242E-01 -1.212264791760E-01  1.499343992589E-02
C55  4.419479732053E-01 -3.810197839709E-01 -7.395624288894E-02
C56 -4.190534395689E-01  2.862981881043E-01 -8.353201180688E-03
C57  3.852692444115E-01 -2.695301216512E-01 -1.493775165679E-01
C58 -4.748201377871E-01  3.983413500192E-01 -8.259788440804E-02
H59 -3.573760084242E-01  1.212264791760E-01 -1.499343992589E-02
H60  3.233258035979E-01 -1.044957018338E-01 -1.428971102381E-01
C61  4.062620597402E-01 -3.658509772773E-01 -2.310775422140E-01
C62 -4.531839320289E-01  3.030702567809E-01 -1.660437434538E-01
C63  3.460048677185E-01 -2.556349663561E-01 -3.085490143859E-01
C64  4.893748123327E-01  4.136993832049E-01 -2.396680033939E-01
H65 -3.919758870192E-01  1.378033961298E-01 -1.727488613546E-01
H66  2.837133859445E-01 -9.101747416749E-02 -3.020954051218E-01
C67  3.660173781948E-01 -3.551107444105E-01 -3.884424906219E-01
C68 -4.918169840862E-01  3.164647192166E-01 -3.251039389266E-01
H69  3.191552319184E-01 -2.699111754140E-01 -4.465801725498E-01
C70  4.486368033932E-01  4.278635012028E-01 -3.967528603202E-01
H71 -4.304268707877E-01  1.513290831484E-01 -3.317910237389E-01
H72  4.629429921253E-01  3.510168553858E-01 -4.610688910800E-01


#===END
