###############################################################################
#
#                    CRYSTAL17 CIF FILE
#
###############################################################################

data_OPT_STEP_1

_symmetry_space_group_name_H-M 'P 1'
_cell_length_a      7.90000000
_cell_length_b      6.06000000
_cell_length_c     16.01000000
_cell_angle_alpha  101.900002
_cell_angle_beta  112.599998
_cell_angle_gamma   85.800003

loop_
_atom_site_label
_atom_site_fract_x
_atom_site_fract_y
_atom_site_fract_z
C1  1.138440603284E-01  5.083136491070E-02  4.047914914886E-01
H2  1.562276416225E-01  1.224857132429E-01  4.776369399878E-01
C3  1.429030039969E-01  1.672281814390E-01  3.472930194045E-01
C4  2.799584201568E-02 -1.663557699020E-01  3.701427353041E-01
H5  2.064127744389E-01  3.330239748290E-01  3.730145774845E-01
C6  8.844012227785E-02  7.546847631260E-02  2.507558111452E-01
H7  5.772300698285E-03 -2.566728796756E-01  4.169044270863E-01
C8 -2.680746197958E-02 -2.599293861366E-01  2.789590244341E-01
C9  1.169723155412E-01  1.892458036977E-01  1.906140901275E-01
C10  4.973811986895E-04 -1.442324917404E-01  2.156645609261E-01
H11 -9.225895778321E-02 -4.241578484874E-01  2.525607077149E-01
H12  1.839042666459E-01  3.529811146979E-01  2.168280744496E-01
C13  6.011825559640E-02  9.808067317112E-02  9.543138675879E-02
C14 -5.566318349659E-02 -2.358088741290E-01  1.225183517732E-01
C15  8.691766838006E-02  2.122253210780E-01  3.399681818745E-02
C16 -2.917730443067E-02 -1.211274845845E-01  6.027098660141E-02
H17 -1.216999177643E-01 -3.999261449422E-01  9.638316421553E-02
H18  1.536734297256E-01  3.759585659376E-01  6.002602763978E-02
C19  2.917730443067E-02  1.211274845845E-01 -6.027098660141E-02
C20 -8.691766838006E-02 -2.122253210780E-01 -3.399681818745E-02
C21  5.566318349659E-02  2.358088741290E-01 -1.225183517732E-01
C22 -6.011825559640E-02 -9.808067317112E-02 -9.543138675879E-02
H23 -1.536734297256E-01 -3.759585659376E-01 -6.002602763978E-02
H24  1.216999177643E-01  3.999261449422E-01 -9.638316421553E-02
C25 -4.973811986895E-04  1.442324917404E-01 -2.156645609261E-01
C26 -1.169723155412E-01 -1.892458036977E-01 -1.906140901275E-01
C27  2.680746197958E-02  2.599293861366E-01 -2.789590244341E-01
C28 -8.844012227785E-02 -7.546847631260E-02 -2.507558111452E-01
H29 -1.839042666459E-01 -3.529811146979E-01 -2.168280744496E-01
H30  9.225895778321E-02  4.241578484874E-01 -2.525607077149E-01
C31 -2.799584201568E-02  1.663557699020E-01 -3.701427353041E-01
C32 -1.429030039969E-01 -1.672281814390E-01 -3.472930194045E-01
H33 -5.772300698285E-03  2.566728796756E-01 -4.169044270863E-01
C34 -1.138440603284E-01 -5.083136491070E-02 -4.047914914886E-01
H35 -2.064127744389E-01 -3.330239748290E-01 -3.730145774845E-01
H36 -1.562276416225E-01 -1.224857132429E-01 -4.776369399878E-01
C37 -4.329958764206E-01 -4.269925784095E-01  3.994671682877E-01
H38 -4.438703021259E-01 -3.498698943916E-01  4.646117010672E-01
C39 -4.920045176674E-01 -3.134800361820E-01  3.284324205115E-01
C40 -3.563788754909E-01  3.527878231020E-01  3.893058649121E-01
H41  4.502567218375E-01 -1.462772535760E-01  3.363274732447E-01
C42 -4.788294753082E-01 -4.118196736410E-01  2.417174775732E-01
H43 -3.099834835775E-01  2.660623788291E-01  4.469834076042E-01
C44 -3.416489348235E-01  2.523905113435E-01  3.082121189329E-01
C45  4.635801591795E-01 -2.998958282437E-01  1.684391158441E-01
C46 -4.017572552494E-01  3.645187516607E-01  2.313201730051E-01
H47 -2.835351592732E-01  8.564877278928E-02  3.004182653874E-01
H48  4.055992318107E-01 -1.328204581959E-01  1.761382185676E-01
C49  4.800218952081E-01 -3.966294476568E-01  8.381773222455E-02
C50 -3.860928862776E-01  2.668432644341E-01  1.484659898791E-01
C51  4.245590596046E-01 -2.834640771432E-01  9.913391976135E-03
C52 -4.425159841511E-01  3.796957293072E-01  7.348415545972E-02
H53 -3.280435239408E-01  9.987065355698E-02  1.408303635144E-01
H54  3.664331749732E-01 -1.165066240214E-01  1.755224047781E-02
C55  4.425159841511E-01 -3.796957293072E-01 -7.348415545972E-02
C56 -4.245590596046E-01  2.834640771432E-01 -9.913391976135E-03
C57  3.860928862776E-01 -2.668432644341E-01 -1.484659898791E-01
C58 -4.800218952081E-01  3.966294476568E-01 -8.381773222455E-02
H59 -3.664331749732E-01  1.165066240214E-01 -1.755224047781E-02
H60  3.280435239408E-01 -9.987065355698E-02 -1.408303635144E-01
C61  4.017572552494E-01 -3.645187516607E-01 -2.313201730051E-01
C62 -4.635801591795E-01  2.998958282437E-01 -1.684391158441E-01
C63  3.416489348235E-01 -2.523905113435E-01 -3.082121189329E-01
C64  4.788294753082E-01  4.118196736410E-01 -2.417174775732E-01
H65 -4.055992318107E-01  1.328204581959E-01 -1.761382185676E-01
H66  2.835351592732E-01 -8.564877278928E-02 -3.004182653874E-01
C67  3.563788754909E-01 -3.527878231020E-01 -3.893058649121E-01
C68  4.920045176674E-01  3.134800361820E-01 -3.284324205114E-01
H69  3.099834835775E-01 -2.660623788291E-01 -4.469834076042E-01
C70  4.329958764206E-01  4.269925784095E-01 -3.994671682877E-01
H71 -4.502567218375E-01  1.462772535760E-01 -3.363274732447E-01
H72  4.438703021259E-01  3.498698943916E-01 -4.646117010672E-01


#===END

data_OPT_STEP_2

_symmetry_space_group_name_H-M 'P 1'
_cell_length_a      7.90000000
_cell_length_b      6.06000000
_cell_length_c     16.01000000
_cell_angle_alpha  101.900002
_cell_angle_beta  112.599998
_cell_angle_gamma   85.800003

loop_
_atom_site_label
_atom_site_fract_x
_atom_site_fract_y
_atom_site_fract_z
C1  1.138440603284E-01  5.083136491070E-02  4.047914914886E-01
H2  1.562276416225E-01  1.224857132429E-01  4.776369399878E-01
C3  1.429030039969E-01  1.672281814390E-01  3.472930194045E-01
C4  2.799584201568E-02 -1.663557699020E-01  3.701427353041E-01
H5  2.064127744389E-01  3.330239748290E-01  3.730145774845E-01
C6  8.844012227785E-02  7.546847631260E-02  2.507558111452E-01
H7  5.772300698285E-03 -2.566728796756E-01  4.169044270863E-01
C8 -2.680746197958E-02 -2.599293861366E-01  2.789590244341E-01
C9  1.169723155412E-01  1.892458036977E-01  1.906140901275E-01
C10  4.973811986895E-04 -1.442324917404E-01  2.156645609261E-01
H11 -9.225895778321E-02 -4.241578484874E-01  2.525607077149E-01
H12  1.839042666459E-01  3.529811146979E-01  2.168280744496E-01
C13  6.011825559640E-02  9.808067317112E-02  9.543138675879E-02
C14 -5.566318349659E-02 -2.358088741290E-01  1.225183517732E-01
C15  8.691766838006E-02  2.122253210780E-01  3.399681818745E-02
C16 -2.917730443067E-02 -1.211274845845E-01  6.027098660141E-02
H17 -1.216999177643E-01 -3.999261449422E-01  9.638316421553E-02
H18  1.536734297256E-01  3.759585659376E-01  6.002602763978E-02
C19  2.917730443067E-02  1.211274845845E-01 -6.027098660141E-02
C20 -8.691766838006E-02 -2.122253210780E-01 -3.399681818745E-02
C21  5.566318349659E-02  2.358088741290E-01 -1.225183517732E-01
C22 -6.011825559640E-02 -9.808067317112E-02 -9.543138675879E-02
H23 -1.536734297256E-01 -3.759585659376E-01 -6.002602763978E-02
H24  1.216999177643E-01  3.999261449422E-01 -9.638316421553E-02
C25 -4.973811986895E-04  1.442324917404E-01 -2.156645609261E-01
C26 -1.169723155412E-01 -1.892458036977E-01 -1.906140901275E-01
C27  2.680746197958E-02  2.599293861366E-01 -2.789590244341E-01
C28 -8.844012227785E-02 -7.546847631260E-02 -2.507558111452E-01
H29 -1.839042666459E-01 -3.529811146979E-01 -2.168280744496E-01
H30  9.225895778321E-02  4.241578484874E-01 -2.525607077149E-01
C31 -2.799584201568E-02  1.663557699020E-01 -3.701427353041E-01
C32 -1.429030039969E-01 -1.672281814390E-01 -3.472930194045E-01
H33 -5.772300698285E-03  2.566728796756E-01 -4.169044270863E-01
C34 -1.138440603284E-01 -5.083136491070E-02 -4.047914914886E-01
H35 -2.064127744389E-01 -3.330239748290E-01 -3.730145774845E-01
H36 -1.562276416225E-01 -1.224857132429E-01 -4.776369399878E-01
C37 -4.329958764206E-01 -4.269925784095E-01  3.994671682877E-01
H38 -4.438703021259E-01 -3.498698943916E-01  4.646117010672E-01
C39 -4.920045176674E-01 -3.134800361820E-01  3.284324205115E-01
C40 -3.563788754909E-01  3.527878231020E-01  3.893058649121E-01
H41  4.502567218375E-01 -1.462772535760E-01  3.363274732447E-01
C42 -4.788294753082E-01 -4.118196736410E-01  2.417174775732E-01
H43 -3.099834835775E-01  2.660623788291E-01  4.469834076042E-01
C44 -3.416489348235E-01  2.523905113435E-01  3.082121189329E-01
C45  4.635801591795E-01 -2.998958282437E-01  1.684391158441E-01
C46 -4.017572552494E-01  3.645187516607E-01  2.313201730051E-01
H47 -2.835351592732E-01  8.564877278928E-02  3.004182653874E-01
H48  4.055992318107E-01 -1.328204581959E-01  1.761382185676E-01
C49  4.800218952081E-01 -3.966294476568E-01  8.381773222455E-02
C50 -3.860928862776E-01  2.668432644341E-01  1.484659898791E-01
C51  4.245590596046E-01 -2.834640771432E-01  9.913391976135E-03
C52 -4.425159841511E-01  3.796957293072E-01  7.348415545972E-02
H53 -3.280435239408E-01  9.987065355698E-02  1.408303635144E-01
H54  3.664331749732E-01 -1.165066240214E-01  1.755224047781E-02
C55  4.425159841511E-01 -3.796957293072E-01 -7.348415545972E-02
C56 -4.245590596046E-01  2.834640771432E-01 -9.913391976135E-03
C57  3.860928862776E-01 -2.668432644341E-01 -1.484659898791E-01
C58 -4.800218952081E-01  3.966294476568E-01 -8.381773222455E-02
H59 -3.664331749732E-01  1.165066240214E-01 -1.755224047781E-02
H60  3.280435239408E-01 -9.987065355698E-02 -1.408303635144E-01
C61  4.017572552494E-01 -3.645187516607E-01 -2.313201730051E-01
C62 -4.635801591795E-01  2.998958282437E-01 -1.684391158441E-01
C63  3.416489348235E-01 -2.523905113435E-01 -3.082121189329E-01
C64  4.788294753082E-01  4.118196736410E-01 -2.417174775732E-01
H65 -4.055992318107E-01  1.328204581959E-01 -1.761382185676E-01
H66  2.835351592732E-01 -8.564877278928E-02 -3.004182653874E-01
C67  3.563788754909E-01 -3.527878231020E-01 -3.893058649121E-01
C68  4.920045176674E-01  3.134800361820E-01 -3.284324205114E-01
H69  3.099834835775E-01 -2.660623788291E-01 -4.469834076042E-01
C70  4.329958764206E-01  4.269925784095E-01 -3.994671682877E-01
H71 -4.502567218375E-01  1.462772535760E-01 -3.363274732447E-01
H72  4.438703021259E-01  3.498698943916E-01 -4.646117010672E-01


#===END
