###############################################################################
#
#                    CRYSTAL17 CIF FILE
#
###############################################################################

data_OPT_STEP_1

_symmetry_space_group_name_H-M 'P 1'
_cell_length_a      7.90000000
_cell_length_b      6.06000000
_cell_length_c     16.01000000
_cell_angle_alpha  101.900002
_cell_angle_beta  112.599998
_cell_angle_gamma   85.800003

loop_
_atom_site_label
_atom_site_fract_x
_atom_site_fract_y
_atom_site_fract_z
C1  1.229028442228E-01  4.782664867454E-02  4.058055396613E-01
H2  1.636972902513E-01  1.212887935118E-01  4.784862490457E-01
C3  1.543278800217E-01  1.619990192758E-01  3.482543927732E-01
C4  3.687209034306E-02 -1.693241218452E-01  3.714121253452E-01
H5  2.180296922641E-01  3.275817219602E-01  3.737949024926E-01
C6  9.856205156134E-02  7.020940468880E-02  2.516375821752E-01
H7  1.308063983501E-02 -2.578297788788E-01  4.183107398624E-01
C8 -1.555146833112E-02 -2.651596002095E-01  2.804510954645E-01
C9  1.219025576340E-01  1.867957004693E-01  1.909232304477E-01
C10  1.074218429918E-02 -1.495212611023E-01  2.167866442943E-01
H11 -8.107131174830E-02 -4.294385589295E-01  2.543411008886E-01
H12  1.884067787891E-01  3.506333418728E-01  2.170725571793E-01
C13  5.922353420484E-02  9.914267642551E-02  9.526799113925E-02
C14 -5.049606090733E-02 -2.381304951119E-01  1.232090704718E-01
C15  8.261227555300E-02  2.151463906030E-01  3.343266565283E-02
C16 -3.011365882961E-02 -1.199884042478E-01  6.031802778997E-02
H17 -1.169985222525E-01 -4.019137187414E-01  9.708144881499E-02
H18  1.496929270188E-01  3.786751266293E-01  5.941059482206E-02
C19  2.532460554813E-02  1.235327660048E-01 -6.079239630241E-02
C20 -9.180348071014E-02 -2.088700279436E-01 -3.424911698043E-02
C21  5.435048563773E-02  2.360389637293E-01 -1.230694497680E-01
C22 -6.451141260148E-02 -9.532684981431E-02 -9.575051992433E-02
H23 -1.587291543666E-01 -3.724254215673E-01 -6.025446005208E-02
H24  1.205939989047E-01  4.000704271210E-01 -9.716482028471E-02
C25 -1.679567520500E-03  1.435694421781E-01 -2.161716815571E-01
C26 -1.196101784852E-01 -1.882670460905E-01 -1.907325504689E-01
C27  2.106513917964E-02  2.609941382839E-01 -2.801661670987E-01
C28 -9.033089546192E-02 -7.566810385210E-02 -2.510125092966E-01
H29 -1.871145275921E-01 -3.515799644204E-01 -2.168141277303E-01
H30  8.787941561642E-02  4.244294613949E-01 -2.539552848404E-01
C31 -4.327402159764E-02  1.721962788794E-01 -3.720671043036E-01
C32 -1.498019197075E-01 -1.653851733792E-01 -3.479338934892E-01
H33 -2.721451333349E-02  2.654843435424E-01 -4.195666434154E-01
C34 -1.297154208162E-01 -4.460093882912E-02 -4.064668980723E-01
H35 -2.125977260613E-01 -3.314896367778E-01 -3.733057663412E-01
H36 -1.782126961997E-01 -1.133022021638E-01 -4.798055074917E-01
C37 -4.431521695107E-01 -4.251010880846E-01  3.977780929393E-01
H38 -4.527615843661E-01 -3.457528001875E-01  4.629785173213E-01
C39  4.945168403785E-01 -3.151008946870E-01  3.256503069926E-01
C40 -3.656267293697E-01  3.550923947844E-01  3.884762843324E-01
H41  4.356769092804E-01 -1.485670231353E-01  3.328657320229E-01
C42 -4.904258076086E-01 -4.143118698442E-01  2.395145441268E-01
H43 -3.174316439198E-01  2.706372865590E-01  4.468422339701E-01
C44 -3.527556937952E-01  2.517145179238E-01  3.072519713797E-01
C45  4.569125829888E-01 -3.010515655346E-01  1.667898795109E-01
C46 -4.117441539890E-01  3.628131835764E-01  2.300812037359E-01
H47 -2.938603398745E-01  8.520747799122E-02  3.001266290088E-01
H48  3.980670014496E-01 -1.344106349172E-01  1.738930962896E-01
C49  4.808897361984E-01 -3.951703417542E-01  8.380906009840E-02
C50 -3.892194530648E-01  2.672889070201E-01  1.486988227154E-01
C51  4.287232904104E-01 -2.812415468590E-01  1.023867123065E-02
C52 -4.399664829314E-01  3.819385792853E-01  7.437832046263E-02
H53 -3.294902406143E-01  1.010754855720E-01  1.418667107286E-01
H54  3.698294441598E-01 -1.145834532028E-01  1.737849755411E-02
C55  4.461827101412E-01 -3.789906171505E-01 -7.310719400457E-02
C56 -4.178305132492E-01  2.867928465514E-01 -8.086901121649E-03
C57  3.860579876302E-01 -2.691843866203E-01 -1.490990028268E-01
C58 -4.752611999364E-01  3.978600754886E-01 -8.266873730388E-02
H59 -3.587036782640E-01  1.203688780806E-01 -1.522969133489E-02
H60  3.274029897017E-01 -1.024375256094E-01 -1.418689016010E-01
C61  4.014196897332E-01 -3.682114379322E-01 -2.318959970545E-01
C62 -4.611888857282E-01  2.986585213204E-01 -1.676026439097E-01
C63  3.456380918340E-01 -2.551882711414E-01 -3.084644370087E-01
C64  4.803456618416E-01  4.089966787858E-01 -2.413625109102E-01
H65 -4.021572487448E-01  1.321374389262E-01 -1.748051452372E-01
H66  2.843727281841E-01 -8.999573867450E-02 -3.017946737674E-01
C67  3.726365405527E-01 -3.505391478772E-01 -3.870529352008E-01
C68 -4.992472039049E-01  3.130110769520E-01 -3.265414328498E-01
H69  3.326942107680E-01 -2.613396817462E-01 -4.438365230611E-01
C70  4.518394916107E-01  4.305861369934E-01 -3.960929503307E-01
H71 -4.409295396910E-01  1.461173716213E-01 -3.338796299125E-01
H72  4.709243681627E-01  3.567057049887E-01 -4.595303814977E-01


#===END

data_OPT_STEP_2

_symmetry_space_group_name_H-M 'P 1'
_cell_length_a      7.90000000
_cell_length_b      6.06000000
_cell_length_c     16.01000000
_cell_angle_alpha  101.900002
_cell_angle_beta  112.599998
_cell_angle_gamma   85.800003

loop_
_atom_site_label
_atom_site_fract_x
_atom_site_fract_y
_atom_site_fract_z
C1  1.229028442228E-01  4.782664867454E-02  4.058055396613E-01
H2  1.636972902513E-01  1.212887935118E-01  4.784862490457E-01
C3  1.543278800217E-01  1.619990192758E-01  3.482543927732E-01
C4  3.687209034306E-02 -1.693241218452E-01  3.714121253452E-01
H5  2.180296922641E-01  3.275817219602E-01  3.737949024926E-01
C6  9.856205156134E-02  7.020940468880E-02  2.516375821752E-01
H7  1.308063983501E-02 -2.578297788788E-01  4.183107398624E-01
C8 -1.555146833112E-02 -2.651596002095E-01  2.804510954645E-01
C9  1.219025576340E-01  1.867957004693E-01  1.909232304477E-01
C10  1.074218429918E-02 -1.495212611023E-01  2.167866442943E-01
H11 -8.107131174830E-02 -4.294385589295E-01  2.543411008886E-01
H12  1.884067787891E-01  3.506333418728E-01  2.170725571793E-01
C13  5.922353420484E-02  9.914267642551E-02  9.526799113925E-02
C14 -5.049606090733E-02 -2.381304951119E-01  1.232090704718E-01
C15  8.261227555300E-02  2.151463906030E-01  3.343266565283E-02
C16 -3.011365882961E-02 -1.199884042478E-01  6.031802778997E-02
H17 -1.169985222525E-01 -4.019137187414E-01  9.708144881499E-02
H18  1.496929270188E-01  3.786751266293E-01  5.941059482206E-02
C19  2.532460554813E-02  1.235327660048E-01 -6.079239630241E-02
C20 -9.180348071014E-02 -2.088700279436E-01 -3.424911698043E-02
C21  5.435048563773E-02  2.360389637293E-01 -1.230694497680E-01
C22 -6.451141260148E-02 -9.532684981431E-02 -9.575051992433E-02
H23 -1.587291543666E-01 -3.724254215673E-01 -6.025446005208E-02
H24  1.205939989047E-01  4.000704271210E-01 -9.716482028471E-02
C25 -1.679567520500E-03  1.435694421781E-01 -2.161716815571E-01
C26 -1.196101784852E-01 -1.882670460905E-01 -1.907325504689E-01
C27  2.106513917964E-02  2.609941382839E-01 -2.801661670987E-01
C28 -9.033089546192E-02 -7.566810385210E-02 -2.510125092966E-01
H29 -1.871145275921E-01 -3.515799644204E-01 -2.168141277303E-01
H30  8.787941561642E-02  4.244294613949E-01 -2.539552848404E-01
C31 -4.327402159764E-02  1.721962788794E-01 -3.720671043036E-01
C32 -1.498019197075E-01 -1.653851733792E-01 -3.479338934892E-01
H33 -2.721451333349E-02  2.654843435424E-01 -4.195666434154E-01
C34 -1.297154208162E-01 -4.460093882912E-02 -4.064668980723E-01
H35 -2.125977260613E-01 -3.314896367778E-01 -3.733057663412E-01
H36 -1.782126961997E-01 -1.133022021638E-01 -4.798055074917E-01
C37 -4.431521695107E-01 -4.251010880846E-01  3.977780929393E-01
H38 -4.527615843661E-01 -3.457528001875E-01  4.629785173213E-01
C39  4.945168403785E-01 -3.151008946870E-01  3.256503069926E-01
C40 -3.656267293697E-01  3.550923947844E-01  3.884762843324E-01
H41  4.356769092804E-01 -1.485670231353E-01  3.328657320229E-01
C42 -4.904258076086E-01 -4.143118698442E-01  2.395145441268E-01
H43 -3.174316439198E-01  2.706372865590E-01  4.468422339701E-01
C44 -3.527556937952E-01  2.517145179238E-01  3.072519713797E-01
C45  4.569125829888E-01 -3.010515655346E-01  1.667898795109E-01
C46 -4.117441539890E-01  3.628131835764E-01  2.300812037359E-01
H47 -2.938603398745E-01  8.520747799122E-02  3.001266290088E-01
H48  3.980670014496E-01 -1.344106349172E-01  1.738930962896E-01
C49  4.808897361984E-01 -3.951703417542E-01  8.380906009840E-02
C50 -3.892194530648E-01  2.672889070201E-01  1.486988227154E-01
C51  4.287232904104E-01 -2.812415468590E-01  1.023867123065E-02
C52 -4.399664829314E-01  3.819385792853E-01  7.437832046263E-02
H53 -3.294902406143E-01  1.010754855720E-01  1.418667107286E-01
H54  3.698294441598E-01 -1.145834532028E-01  1.737849755411E-02
C55  4.461827101412E-01 -3.789906171505E-01 -7.310719400457E-02
C56 -4.178305132492E-01  2.867928465514E-01 -8.086901121649E-03
C57  3.860579876302E-01 -2.691843866203E-01 -1.490990028268E-01
C58 -4.752611999364E-01  3.978600754886E-01 -8.266873730388E-02
H59 -3.587036782640E-01  1.203688780806E-01 -1.522969133489E-02
H60  3.274029897017E-01 -1.024375256094E-01 -1.418689016010E-01
C61  4.014196897332E-01 -3.682114379322E-01 -2.318959970545E-01
C62 -4.611888857282E-01  2.986585213204E-01 -1.676026439097E-01
C63  3.456380918340E-01 -2.551882711414E-01 -3.084644370087E-01
C64  4.803456618416E-01  4.089966787858E-01 -2.413625109102E-01
H65 -4.021572487448E-01  1.321374389262E-01 -1.748051452372E-01
H66  2.843727281841E-01 -8.999573867450E-02 -3.017946737674E-01
C67  3.726365405527E-01 -3.505391478772E-01 -3.870529352008E-01
C68 -4.992472039049E-01  3.130110769520E-01 -3.265414328498E-01
H69  3.326942107680E-01 -2.613396817462E-01 -4.438365230611E-01
C70  4.518394916107E-01  4.305861369934E-01 -3.960929503307E-01
H71 -4.409295396910E-01  1.461173716213E-01 -3.338796299125E-01
H72  4.709243681627E-01  3.567057049887E-01 -4.595303814977E-01


#===END
