###############################################################################
#
#                    CRYSTAL17 CIF FILE
#
###############################################################################

data_OPT_STEP_1

_symmetry_space_group_name_H-M 'P 1'
_cell_length_a      7.90000000
_cell_length_b      6.06000000
_cell_length_c     16.01000000
_cell_angle_alpha  101.900002
_cell_angle_beta  112.599998
_cell_angle_gamma   85.800003

loop_
_atom_site_label
_atom_site_fract_x
_atom_site_fract_y
_atom_site_fract_z
C1  1.345622078827E-01  3.560409861475E-02  4.071895708917E-01
H2  1.823683052544E-01  1.025133758608E-01  4.806670047891E-01
C3  1.568156716543E-01  1.583604375961E-01  3.497658893044E-01
C4  4.719440997269E-02 -1.804971226634E-01  3.717089499233E-01
H5  2.203291675567E-01  3.239351465826E-01  3.762810201694E-01
C6  9.525522187817E-02  7.357753169107E-02  2.523447718145E-01
H7  2.982356715738E-02 -2.752053481717E-01  4.184333493252E-01
C8 -1.582154116348E-02 -2.668308124345E-01  2.796690459328E-01
C9  1.193217692107E-01  1.920651992216E-01  1.922283363575E-01
C10  5.943722715850E-03 -1.451469780848E-01  2.166475964654E-01
H11 -8.326744533550E-02 -4.298249696084E-01  2.523639536782E-01
H12  1.874607894147E-01  3.549058194785E-01  2.192588723118E-01
C13  5.818397842369E-02  1.055481605408E-01  9.641788188662E-02
C14 -5.565567050232E-02 -2.313187756578E-01  1.230009813652E-01
C15  8.270021883645E-02  2.210629578106E-01  3.454731302790E-02
C16 -3.191532211564E-02 -1.131251993201E-01  6.112462330902E-02
H17 -1.225213167600E-01 -3.948666749890E-01  9.613917001529E-02
H18  1.504033759988E-01  3.842832622840E-01  6.058497668589E-02
C19  2.352294226210E-02  1.303959709325E-01 -5.998580078336E-02
C20 -9.171553742669E-02 -2.029534607360E-01 -3.313446960536E-02
C21  4.919087604274E-02  2.428506831834E-01 -1.232775388746E-01
C22 -6.555096838263E-02 -8.892136569905E-02 -9.460062917696E-02
H23 -1.580187053866E-01 -3.668172859126E-01 -5.908007818825E-02
H24  1.150712043972E-01  4.071174708734E-01 -9.810709908441E-02
C25 -6.478029103828E-03  1.479437251956E-01 -2.163107293860E-01
C26 -1.221909669085E-01 -1.829975473382E-01 -1.894274445591E-01
C27  2.079506634728E-02  2.593229260589E-01 -2.809482166304E-01
C28 -9.363772514509E-02 -7.229997684983E-02 -2.503053196573E-01
H29 -1.880605169665E-01 -3.473074868147E-01 -2.146278125978E-01
H30  8.568328202922E-02  4.240430507160E-01 -2.559324320508E-01
C31 -3.295170196801E-02  1.610232780612E-01 -3.717702797255E-01
C32 -1.473141280749E-01 -1.690237550589E-01 -3.464223969580E-01
H33 -1.047158601112E-02  2.481087742495E-01 -4.194440339526E-01
C34 -1.180560571563E-01 -5.682348888891E-02 -4.050828668419E-01
H35 -2.102982507687E-01 -3.351362121554E-01 -3.708196486644E-01
H36 -1.595416811966E-01 -1.320776198148E-01 -4.776247517483E-01
C37 -4.579638418224E-01 -4.363712477160E-01  3.944325710436E-01
H38 -4.756246151526E-01 -3.623370295660E-01  4.582025642875E-01
C39  4.907838326772E-01 -3.192073822939E-01  3.247021170580E-01
C40 -3.787325393915E-01  3.448738545886E-01  3.851148485034E-01
H41  4.319590403270E-01 -1.528103177408E-01  3.323163680465E-01
C42 -4.863960536972E-01 -4.125981304411E-01  2.398856723945E-01
H43 -3.378196616814E-01  2.555568648726E-01  4.418861936594E-01
C44 -3.532558671943E-01  2.497094010762E-01  3.061622674173E-01
C45  4.615586829232E-01 -2.978079426421E-01  1.675340970716E-01
C46 -4.064576760266E-01  3.652613656359E-01  2.303905015429E-01
H47 -2.920041295089E-01  8.457257013999E-02  2.991747159895E-01
H48  4.017004012805E-01 -1.317646999287E-01  1.748438983186E-01
C49  4.837686237168E-01 -3.916188048458E-01  8.405832367626E-02
C50 -3.834668370081E-01  2.713495991444E-01  1.490165814404E-01
C51  4.300622900660E-01 -2.783948306170E-01  1.013563480849E-02
C52 -4.368891376037E-01  3.856159815552E-01  7.454278599125E-02
H53 -3.239627040952E-01  1.051149133405E-01  1.417157771239E-01
H54  3.705458423352E-01 -1.120157258671E-01  1.716546095387E-02
C55  4.492600554689E-01 -3.753132148806E-01 -7.294272847595E-02
C56 -4.164915135936E-01  2.896395627934E-01 -8.189937543812E-03
C57  3.918106036869E-01 -2.651236944960E-01 -1.487812441018E-01
C58 -4.723823124180E-01  4.014116123970E-01 -8.241947372602E-02
H59 -3.579872800886E-01  1.229366054163E-01 -1.544272793513E-02
H60  3.329305262208E-01 -9.839809784095E-02 -1.420198352057E-01
C61  4.067061676956E-01 -3.657632558727E-01 -2.315866992475E-01
C62 -4.565427857938E-01  3.019021442129E-01 -1.668584263490E-01
C63  3.451379184349E-01 -2.571933879890E-01 -3.095541409711E-01
C64  4.843754157530E-01  4.107104181889E-01 -2.409913826425E-01
H65 -3.985238489139E-01  1.347833739147E-01 -1.738543432082E-01
H66  2.862289385497E-01 -9.063064652573E-02 -3.027465867867E-01
C67  3.595307305309E-01 -3.607576880730E-01 -3.904143710298E-01
C68  4.970197883938E-01  3.089045893451E-01 -3.274896227844E-01
H69  3.123061930064E-01 -2.764201034326E-01 -4.487925633718E-01
C70  4.370278192990E-01  4.193159773620E-01 -3.994384722264E-01
H71 -4.446474086444E-01  1.418740770158E-01 -3.344289938889E-01
H72  4.480613373762E-01  3.401214756102E-01 -4.643063345315E-01


#===END

data_OPT_STEP_2

_symmetry_space_group_name_H-M 'P 1'
_cell_length_a      7.90000000
_cell_length_b      6.06000000
_cell_length_c     16.01000000
_cell_angle_alpha  101.900002
_cell_angle_beta  112.599998
_cell_angle_gamma   85.800003

loop_
_atom_site_label
_atom_site_fract_x
_atom_site_fract_y
_atom_site_fract_z
C1  1.345622078827E-01  3.560409861475E-02  4.071895708917E-01
H2  1.823683052544E-01  1.025133758608E-01  4.806670047891E-01
C3  1.568156716543E-01  1.583604375961E-01  3.497658893044E-01
C4  4.719440997269E-02 -1.804971226634E-01  3.717089499233E-01
H5  2.203291675567E-01  3.239351465826E-01  3.762810201694E-01
C6  9.525522187817E-02  7.357753169107E-02  2.523447718145E-01
H7  2.982356715738E-02 -2.752053481717E-01  4.184333493252E-01
C8 -1.582154116348E-02 -2.668308124345E-01  2.796690459328E-01
C9  1.193217692107E-01  1.920651992216E-01  1.922283363575E-01
C10  5.943722715850E-03 -1.451469780848E-01  2.166475964654E-01
H11 -8.326744533550E-02 -4.298249696084E-01  2.523639536782E-01
H12  1.874607894147E-01  3.549058194785E-01  2.192588723118E-01
C13  5.818397842369E-02  1.055481605408E-01  9.641788188662E-02
C14 -5.565567050232E-02 -2.313187756578E-01  1.230009813652E-01
C15  8.270021883645E-02  2.210629578106E-01  3.454731302790E-02
C16 -3.191532211564E-02 -1.131251993201E-01  6.112462330902E-02
H17 -1.225213167600E-01 -3.948666749890E-01  9.613917001529E-02
H18  1.504033759988E-01  3.842832622840E-01  6.058497668589E-02
C19  2.352294226210E-02  1.303959709325E-01 -5.998580078336E-02
C20 -9.171553742669E-02 -2.029534607360E-01 -3.313446960536E-02
C21  4.919087604274E-02  2.428506831834E-01 -1.232775388746E-01
C22 -6.555096838263E-02 -8.892136569905E-02 -9.460062917696E-02
H23 -1.580187053866E-01 -3.668172859126E-01 -5.908007818825E-02
H24  1.150712043972E-01  4.071174708734E-01 -9.810709908441E-02
C25 -6.478029103828E-03  1.479437251956E-01 -2.163107293860E-01
C26 -1.221909669085E-01 -1.829975473382E-01 -1.894274445591E-01
C27  2.079506634728E-02  2.593229260589E-01 -2.809482166304E-01
C28 -9.363772514509E-02 -7.229997684983E-02 -2.503053196573E-01
H29 -1.880605169665E-01 -3.473074868147E-01 -2.146278125978E-01
H30  8.568328202922E-02  4.240430507160E-01 -2.559324320508E-01
C31 -3.295170196801E-02  1.610232780612E-01 -3.717702797255E-01
C32 -1.473141280749E-01 -1.690237550589E-01 -3.464223969580E-01
H33 -1.047158601112E-02  2.481087742495E-01 -4.194440339526E-01
C34 -1.180560571563E-01 -5.682348888891E-02 -4.050828668419E-01
H35 -2.102982507687E-01 -3.351362121554E-01 -3.708196486644E-01
H36 -1.595416811966E-01 -1.320776198148E-01 -4.776247517483E-01
C37 -4.579638418224E-01 -4.363712477160E-01  3.944325710436E-01
H38 -4.756246151526E-01 -3.623370295660E-01  4.582025642875E-01
C39  4.907838326772E-01 -3.192073822939E-01  3.247021170580E-01
C40 -3.787325393915E-01  3.448738545886E-01  3.851148485034E-01
H41  4.319590403270E-01 -1.528103177408E-01  3.323163680465E-01
C42 -4.863960536972E-01 -4.125981304411E-01  2.398856723945E-01
H43 -3.378196616814E-01  2.555568648726E-01  4.418861936594E-01
C44 -3.532558671943E-01  2.497094010762E-01  3.061622674173E-01
C45  4.615586829232E-01 -2.978079426421E-01  1.675340970716E-01
C46 -4.064576760266E-01  3.652613656359E-01  2.303905015429E-01
H47 -2.920041295089E-01  8.457257013999E-02  2.991747159895E-01
H48  4.017004012805E-01 -1.317646999287E-01  1.748438983186E-01
C49  4.837686237168E-01 -3.916188048458E-01  8.405832367626E-02
C50 -3.834668370081E-01  2.713495991444E-01  1.490165814404E-01
C51  4.300622900660E-01 -2.783948306170E-01  1.013563480849E-02
C52 -4.368891376037E-01  3.856159815552E-01  7.454278599125E-02
H53 -3.239627040952E-01  1.051149133405E-01  1.417157771239E-01
H54  3.705458423352E-01 -1.120157258671E-01  1.716546095387E-02
C55  4.492600554689E-01 -3.753132148806E-01 -7.294272847595E-02
C56 -4.164915135936E-01  2.896395627934E-01 -8.189937543812E-03
C57  3.918106036869E-01 -2.651236944960E-01 -1.487812441018E-01
C58 -4.723823124180E-01  4.014116123970E-01 -8.241947372602E-02
H59 -3.579872800886E-01  1.229366054163E-01 -1.544272793513E-02
H60  3.329305262208E-01 -9.839809784095E-02 -1.420198352057E-01
C61  4.067061676956E-01 -3.657632558727E-01 -2.315866992475E-01
C62 -4.565427857938E-01  3.019021442129E-01 -1.668584263490E-01
C63  3.451379184349E-01 -2.571933879890E-01 -3.095541409711E-01
C64  4.843754157530E-01  4.107104181889E-01 -2.409913826425E-01
H65 -3.985238489139E-01  1.347833739147E-01 -1.738543432082E-01
H66  2.862289385497E-01 -9.063064652573E-02 -3.027465867867E-01
C67  3.595307305309E-01 -3.607576880730E-01 -3.904143710298E-01
C68  4.970197883938E-01  3.089045893451E-01 -3.274896227844E-01
H69  3.123061930064E-01 -2.764201034326E-01 -4.487925633718E-01
C70  4.370278192990E-01  4.193159773620E-01 -3.994384722264E-01
H71 -4.446474086444E-01  1.418740770158E-01 -3.344289938889E-01
H72  4.480613373762E-01  3.401214756102E-01 -4.643063345315E-01


#===END
