###############################################################################
#
#                    CRYSTAL17 CIF FILE
#
###############################################################################

data_OPT_STEP_1

_symmetry_space_group_name_H-M 'P 1'
_cell_length_a      7.90000000
_cell_length_b      6.06000000
_cell_length_c     16.01000000
_cell_angle_alpha  101.900002
_cell_angle_beta  112.599998
_cell_angle_gamma   85.800003

loop_
_atom_site_label
_atom_site_fract_x
_atom_site_fract_y
_atom_site_fract_z
C1  1.237112499563E-01  6.096685523093E-02  4.069490086298E-01
H2  1.672739127638E-01  1.322033095444E-01  4.798803167137E-01
C3  1.511222057079E-01  1.776109795067E-01  3.490759871473E-01
C4  3.712795236090E-02 -1.558694670983E-01  3.724502599997E-01
H5  2.146843674691E-01  3.433022873768E-01  3.746021985884E-01
C6  9.468010147318E-02  8.628849649441E-02  2.523995807650E-01
H7  1.570063614617E-02 -2.458336881212E-01  4.195600657828E-01
C8 -2.010189088996E-02 -2.488684601391E-01  2.811043418066E-01
C9  1.216639190286E-01  2.005548719641E-01  1.919665748546E-01
C10  6.054511065217E-03 -1.330841355384E-01  2.174619738897E-01
H11 -8.673013896193E-02 -4.126390202496E-01  2.548365739310E-01
H12  1.885145877459E-01  3.642466322629E-01  2.181196231310E-01
C13  6.330927342731E-02  1.100551200339E-01  9.668349049699E-02
C14 -5.204626061248E-02 -2.238597980977E-01  1.241626140542E-01
C15  8.853349043026E-02  2.248488348683E-01  3.497404210746E-02
C16 -2.644141123755E-02 -1.089501261963E-01  6.168003339162E-02
H17 -1.189814812785E-01 -3.876231832626E-01  9.804696265886E-02
H18  1.552967126033E-01  3.885469220985E-01  6.092609943290E-02
C19  2.899685314019E-02  1.345710440563E-01 -5.943039070076E-02
C20 -8.588226583288E-02 -1.991675836783E-01 -3.270774052580E-02
C21  5.280028593258E-02  2.503096607435E-01 -1.221159061856E-01
C22 -6.042567337901E-02 -8.441440620596E-02 -9.433502056659E-02
H23 -1.531253687821E-01 -3.625536260981E-01 -5.873895544124E-02
H24  1.186110398787E-01  4.143609625998E-01 -9.619930644084E-02
C25 -6.367240754461E-03  1.600065677420E-01 -2.154963519617E-01
C26 -1.198488170906E-01 -1.745078745957E-01 -1.896892060620E-01
C27  1.651471662080E-02  2.772852783543E-01 -2.795129207566E-01
C28 -9.421284555008E-02 -5.958901204649E-02 -2.502505107068E-01
H29 -1.870067186353E-01 -3.379666740303E-01 -2.157670617786E-01
H30  8.222058840279E-02  4.412290000748E-01 -2.534598117980E-01
C31 -4.301815957980E-02  1.856509336263E-01 -3.710289696491E-01
C32 -1.530075940213E-01 -1.497732131483E-01 -3.471122991151E-01
H33 -2.459451702233E-02  2.774804343000E-01 -4.183173174950E-01
C34 -1.289070150827E-01 -3.146073227273E-02 -4.053234291038E-01
H35 -2.159430508563E-01 -3.157690713612E-01 -3.724984702454E-01
H36 -1.746360736872E-01 -1.023876861312E-01 -4.784114398237E-01
C37 -4.454301048128E-01 -4.413519178840E-01  3.962365657375E-01
H38 -4.584998106895E-01 -3.643656895852E-01  4.608469340809E-01
C39  4.987910728384E-01 -3.271477256655E-01  3.255243107114E-01
C40 -3.693780437176E-01  3.381404337096E-01  3.865048490259E-01
H41  4.412103858571E-01 -1.599036602117E-01  3.331094641835E-01
C42 -4.846756097307E-01 -4.249657332968E-01  2.395626959515E-01
H43 -3.260426315296E-01  2.507563458590E-01  4.438509064081E-01
C44 -3.507516478691E-01  2.385977503260E-01  3.063313040065E-01
C45  4.596650582135E-01 -3.130138156116E-01  1.663765417874E-01
C46 -4.069596090288E-01  3.516891035113E-01  2.298275084826E-01
H47 -2.923064399560E-01  7.204077336779E-02  2.990183409030E-01
H48  4.010631592385E-01 -1.462812922405E-01  1.736176029312E-01
C49  4.785121705328E-01 -4.095973599864E-01  8.233347909823E-02
C50 -3.881414683474E-01  2.545849535822E-01  1.477254223734E-01
C51  4.235165693019E-01 -2.971679219935E-01  8.241196742906E-03
C52 -4.428652892782E-01  3.673329353286E-01  7.277729609087E-02
H53 -3.298042660536E-01  8.781308445009E-02  1.404984398172E-01
H54  3.644369289284E-01 -1.307042404756E-01  1.534991572272E-02
C55  4.432839037944E-01 -3.935962611072E-01 -7.470821837633E-02
C56 -4.230372343577E-01  2.708664714169E-01 -1.008437560939E-02
C57  3.871359723476E-01 -2.818883400582E-01 -1.500724031688E-01
C58 -4.776387656020E-01  3.834330572564E-01 -8.414431830405E-02
H59 -3.640961934954E-01  1.042480908078E-01 -1.725827316628E-02
H60  3.270889642624E-01 -1.156999267313E-01 -1.432371725124E-01
C61  4.062042346934E-01 -3.793355179973E-01 -2.321496923078E-01
C62 -4.584364105035E-01  2.866962712434E-01 -1.680159816332E-01
C63  3.476421377601E-01 -2.683050387392E-01 -3.093851043819E-01
C64  4.860958597195E-01  3.983428153332E-01 -2.413143590855E-01
H65 -3.991610909559E-01  1.202667816029E-01 -1.750806385956E-01
H66  2.859266281026E-01 -1.031624432979E-01 -3.029029618732E-01
C67  3.688852262048E-01 -3.674911089520E-01 -3.890243705073E-01
C68 -4.949729714450E-01  3.009642459735E-01 -3.266674291310E-01
H69  3.240832231582E-01 -2.812206224462E-01 -4.468278506231E-01
C70  4.495615563086E-01  4.143353071940E-01 -3.976344775325E-01
H71 -4.353960631143E-01  1.347807345449E-01 -3.336358977519E-01
H72  4.651861418393E-01  3.380928155910E-01 -4.616619647381E-01


#===END

data_OPT_STEP_2

_symmetry_space_group_name_H-M 'P 1'
_cell_length_a      7.90000000
_cell_length_b      6.06000000
_cell_length_c     16.01000000
_cell_angle_alpha  101.900002
_cell_angle_beta  112.599998
_cell_angle_gamma   85.800003

loop_
_atom_site_label
_atom_site_fract_x
_atom_site_fract_y
_atom_site_fract_z
C1  1.237112499563E-01  6.096685523093E-02  4.069490086298E-01
H2  1.672739127638E-01  1.322033095444E-01  4.798803167137E-01
C3  1.511222057079E-01  1.776109795067E-01  3.490759871473E-01
C4  3.712795236090E-02 -1.558694670983E-01  3.724502599997E-01
H5  2.146843674691E-01  3.433022873768E-01  3.746021985884E-01
C6  9.468010147318E-02  8.628849649441E-02  2.523995807650E-01
H7  1.570063614617E-02 -2.458336881212E-01  4.195600657828E-01
C8 -2.010189088996E-02 -2.488684601391E-01  2.811043418066E-01
C9  1.216639190286E-01  2.005548719641E-01  1.919665748546E-01
C10  6.054511065217E-03 -1.330841355384E-01  2.174619738897E-01
H11 -8.673013896193E-02 -4.126390202496E-01  2.548365739310E-01
H12  1.885145877459E-01  3.642466322629E-01  2.181196231310E-01
C13  6.330927342731E-02  1.100551200339E-01  9.668349049699E-02
C14 -5.204626061248E-02 -2.238597980977E-01  1.241626140542E-01
C15  8.853349043026E-02  2.248488348683E-01  3.497404210746E-02
C16 -2.644141123755E-02 -1.089501261963E-01  6.168003339162E-02
H17 -1.189814812785E-01 -3.876231832626E-01  9.804696265886E-02
H18  1.552967126033E-01  3.885469220985E-01  6.092609943290E-02
C19  2.899685314019E-02  1.345710440563E-01 -5.943039070076E-02
C20 -8.588226583288E-02 -1.991675836783E-01 -3.270774052580E-02
C21  5.280028593258E-02  2.503096607435E-01 -1.221159061856E-01
C22 -6.042567337901E-02 -8.441440620596E-02 -9.433502056659E-02
H23 -1.531253687821E-01 -3.625536260981E-01 -5.873895544124E-02
H24  1.186110398787E-01  4.143609625998E-01 -9.619930644084E-02
C25 -6.367240754461E-03  1.600065677420E-01 -2.154963519617E-01
C26 -1.198488170906E-01 -1.745078745957E-01 -1.896892060620E-01
C27  1.651471662080E-02  2.772852783543E-01 -2.795129207566E-01
C28 -9.421284555008E-02 -5.958901204649E-02 -2.502505107068E-01
H29 -1.870067186353E-01 -3.379666740303E-01 -2.157670617786E-01
H30  8.222058840279E-02  4.412290000748E-01 -2.534598117980E-01
C31 -4.301815957980E-02  1.856509336263E-01 -3.710289696491E-01
C32 -1.530075940213E-01 -1.497732131483E-01 -3.471122991151E-01
H33 -2.459451702233E-02  2.774804343000E-01 -4.183173174950E-01
C34 -1.289070150827E-01 -3.146073227273E-02 -4.053234291038E-01
H35 -2.159430508563E-01 -3.157690713612E-01 -3.724984702454E-01
H36 -1.746360736872E-01 -1.023876861312E-01 -4.784114398237E-01
C37 -4.454301048128E-01 -4.413519178840E-01  3.962365657375E-01
H38 -4.584998106895E-01 -3.643656895852E-01  4.608469340809E-01
C39  4.987910728384E-01 -3.271477256655E-01  3.255243107114E-01
C40 -3.693780437176E-01  3.381404337096E-01  3.865048490259E-01
H41  4.412103858571E-01 -1.599036602117E-01  3.331094641835E-01
C42 -4.846756097307E-01 -4.249657332968E-01  2.395626959515E-01
H43 -3.260426315296E-01  2.507563458590E-01  4.438509064081E-01
C44 -3.507516478691E-01  2.385977503260E-01  3.063313040065E-01
C45  4.596650582135E-01 -3.130138156116E-01  1.663765417874E-01
C46 -4.069596090288E-01  3.516891035113E-01  2.298275084826E-01
H47 -2.923064399560E-01  7.204077336779E-02  2.990183409030E-01
H48  4.010631592385E-01 -1.462812922405E-01  1.736176029312E-01
C49  4.785121705328E-01 -4.095973599864E-01  8.233347909823E-02
C50 -3.881414683474E-01  2.545849535822E-01  1.477254223734E-01
C51  4.235165693019E-01 -2.971679219935E-01  8.241196742906E-03
C52 -4.428652892782E-01  3.673329353286E-01  7.277729609087E-02
H53 -3.298042660536E-01  8.781308445009E-02  1.404984398172E-01
H54  3.644369289284E-01 -1.307042404756E-01  1.534991572272E-02
C55  4.432839037944E-01 -3.935962611072E-01 -7.470821837633E-02
C56 -4.230372343577E-01  2.708664714169E-01 -1.008437560939E-02
C57  3.871359723476E-01 -2.818883400582E-01 -1.500724031688E-01
C58 -4.776387656020E-01  3.834330572564E-01 -8.414431830405E-02
H59 -3.640961934954E-01  1.042480908078E-01 -1.725827316628E-02
H60  3.270889642624E-01 -1.156999267313E-01 -1.432371725124E-01
C61  4.062042346934E-01 -3.793355179973E-01 -2.321496923078E-01
C62 -4.584364105035E-01  2.866962712434E-01 -1.680159816332E-01
C63  3.476421377601E-01 -2.683050387392E-01 -3.093851043819E-01
C64  4.860958597195E-01  3.983428153332E-01 -2.413143590855E-01
H65 -3.991610909559E-01  1.202667816029E-01 -1.750806385956E-01
H66  2.859266281026E-01 -1.031624432979E-01 -3.029029618732E-01
C67  3.688852262048E-01 -3.674911089520E-01 -3.890243705073E-01
C68 -4.949729714450E-01  3.009642459735E-01 -3.266674291310E-01
H69  3.240832231582E-01 -2.812206224462E-01 -4.468278506231E-01
C70  4.495615563086E-01  4.143353071940E-01 -3.976344775325E-01
H71 -4.353960631143E-01  1.347807345449E-01 -3.336358977519E-01
H72  4.651861418393E-01  3.380928155910E-01 -4.616619647381E-01


#===END
