###############################################################################
#
#                    CRYSTAL17 CIF FILE
#
###############################################################################

data_OPT_STEP_1

_symmetry_space_group_name_H-M 'P 1'
_cell_length_a      7.90000000
_cell_length_b      6.06000000
_cell_length_c     16.01000000
_cell_angle_alpha  101.900002
_cell_angle_beta  112.599998
_cell_angle_gamma   85.800003

loop_
_atom_site_label
_atom_site_fract_x
_atom_site_fract_y
_atom_site_fract_z
C1  1.382261696095E-01  7.841642817030E-02  4.094025662294E-01
H2  1.830305635405E-01  1.549576002939E-01  4.819134258835E-01
C3  1.613921492850E-01  1.899850839877E-01  3.489019907767E-01
C4  5.450911280593E-02 -1.403658311116E-01  3.782666552133E-01
H5  2.228866607726E-01  3.569552268101E-01  3.719330597569E-01
C6  1.028745851944E-01  9.171935925721E-02  2.527830236058E-01
H7  3.663453072207E-02 -2.262790331598E-01  4.275233445122E-01
C8 -4.308535468442E-03 -2.401384804150E-01  2.875074876747E-01
C9  1.251167770189E-01  2.008921985500E-01  1.896752706891E-01
C10  1.709192739922E-02 -1.295789167634E-01  2.212256725612E-01
H11 -6.890840985538E-02 -4.052893315640E-01  2.637169632675E-01
H12  1.901452565493E-01  3.658310617152E-01  2.132559723196E-01
C13  6.420861359758E-02  1.038771318880E-01  9.490334233911E-02
C14 -4.306055729557E-02 -2.269354267186E-01  1.284737650646E-01
C15  8.467083441561E-02  2.135724093121E-01  3.057721514050E-02
C16 -2.282981694432E-02 -1.169973851008E-01  6.327786740474E-02
H17 -1.077400401001E-01 -3.920483083821E-01  1.049156821816E-01
H18  1.498776203956E-01  3.783483780950E-01  5.410134088248E-02
C19  2.282981694432E-02  1.169973851008E-01 -6.327786740474E-02
C20 -8.467083441561E-02 -2.135724093121E-01 -3.057721514050E-02
C21  4.306055729557E-02  2.269354267186E-01 -1.284737650646E-01
C22 -6.420861359758E-02 -1.038771318880E-01 -9.490334233911E-02
H23 -1.498776203956E-01 -3.783483780950E-01 -5.410134088248E-02
H24  1.077400401001E-01  3.920483083821E-01 -1.049156821816E-01
C25 -1.709192739922E-02  1.295789167634E-01 -2.212256725612E-01
C26 -1.251167770189E-01 -2.008921985500E-01 -1.896752706891E-01
C27  4.308535468442E-03  2.401384804150E-01 -2.875074876747E-01
C28 -1.028745851944E-01 -9.171935925721E-02 -2.527830236058E-01
H29 -1.901452565493E-01 -3.658310617152E-01 -2.132559723196E-01
H30  6.890840985538E-02  4.052893315640E-01 -2.637169632675E-01
C31 -5.450911280593E-02  1.403658311116E-01 -3.782666552133E-01
C32 -1.613921492850E-01 -1.899850839877E-01 -3.489019907767E-01
H33 -3.663453072207E-02  2.262790331598E-01 -4.275233445122E-01
C34 -1.382261696095E-01 -7.841642817030E-02 -4.094025662294E-01
H35 -2.228866607726E-01 -3.569552268101E-01 -3.719330597569E-01
H36 -1.830305635405E-01 -1.549576002939E-01 -4.819134258835E-01
C37 -4.443990123118E-01 -4.352714755240E-01  3.968263427251E-01
H38 -4.612040948565E-01 -3.615510590687E-01  4.608001725901E-01
C39 -4.974501390782E-01 -3.181916404758E-01  3.270713241926E-01
C40 -3.656787732168E-01  3.457296758762E-01  3.870141842348E-01
H41  4.439156561805E-01 -1.516125509670E-01  3.349430794320E-01
C42 -4.782153132304E-01 -4.128179828026E-01  2.415739549867E-01
H43 -3.239922993953E-01  2.561424954657E-01  4.436952921571E-01
C44 -3.430397997900E-01  2.499860274612E-01  3.074672507638E-01
C45  4.650041935641E-01 -3.001281675298E-01  1.686352614299E-01
C46 -3.990892429246E-01  3.645887476793E-01  2.314500924953E-01
H47 -2.829241475493E-01  8.434847010826E-02  3.000178478090E-01
H48  4.056416980411E-01 -1.338557101083E-01  1.762078551141E-01
C49  4.815849773567E-01 -3.961934635280E-01  8.407205547940E-02
C50 -3.809742521273E-01  2.688267495786E-01  1.490951326904E-01
C51  4.229122324493E-01 -2.844602524308E-01  9.740426607760E-03
C52 -4.391355803297E-01  3.810645731801E-01  7.396723327099E-02
H53 -3.221100164681E-01  1.022895602707E-01  1.414668663735E-01
H54  3.637883155612E-01 -1.180913652691E-01  1.736525289422E-02
C55  4.391355803297E-01 -3.810645731801E-01 -7.396723327099E-02
C56 -4.229122324493E-01  2.844602524308E-01 -9.740426607760E-03
C57  3.809742521273E-01 -2.688267495786E-01 -1.490951326904E-01
C58 -4.815849773567E-01  3.961934635280E-01 -8.407205547940E-02
H59 -3.637883155612E-01  1.180913652691E-01 -1.736525289422E-02
H60  3.221100164681E-01 -1.022895602707E-01 -1.414668663735E-01
C61  3.990892429246E-01 -3.645887476793E-01 -2.314500924953E-01
C62 -4.650041935641E-01  3.001281675298E-01 -1.686352614299E-01
C63  3.430397997900E-01 -2.499860274612E-01 -3.074672507638E-01
C64  4.782153132304E-01  4.128179828026E-01 -2.415739549867E-01
H65 -4.056416980411E-01  1.338557101083E-01 -1.762078551141E-01
H66  2.829241475493E-01 -8.434847010826E-02 -3.000178478090E-01
C67  3.656787732168E-01 -3.457296758762E-01 -3.870141842348E-01
C68  4.974501390782E-01  3.181916404758E-01 -3.270713241926E-01
H69  3.239922993953E-01 -2.561424954657E-01 -4.436952921571E-01
C70  4.443990123118E-01  4.352714755240E-01 -3.968263427251E-01
H71 -4.439156561805E-01  1.516125509670E-01 -3.349430794320E-01
H72  4.612040948565E-01  3.615510590687E-01 -4.608001725901E-01


#===END

data_OPT_STEP_2

_symmetry_space_group_name_H-M 'P 1'
_cell_length_a      7.90000000
_cell_length_b      6.06000000
_cell_length_c     16.01000000
_cell_angle_alpha  101.900002
_cell_angle_beta  112.599998
_cell_angle_gamma   85.800003

loop_
_atom_site_label
_atom_site_fract_x
_atom_site_fract_y
_atom_site_fract_z
C1  1.382261696095E-01  7.841642817030E-02  4.094025662294E-01
H2  1.830305635405E-01  1.549576002939E-01  4.819134258835E-01
C3  1.613921492850E-01  1.899850839877E-01  3.489019907767E-01
C4  5.450911280593E-02 -1.403658311116E-01  3.782666552133E-01
H5  2.228866607726E-01  3.569552268101E-01  3.719330597569E-01
C6  1.028745851944E-01  9.171935925721E-02  2.527830236058E-01
H7  3.663453072207E-02 -2.262790331598E-01  4.275233445122E-01
C8 -4.308535468442E-03 -2.401384804150E-01  2.875074876747E-01
C9  1.251167770189E-01  2.008921985500E-01  1.896752706891E-01
C10  1.709192739922E-02 -1.295789167634E-01  2.212256725612E-01
H11 -6.890840985538E-02 -4.052893315640E-01  2.637169632675E-01
H12  1.901452565493E-01  3.658310617152E-01  2.132559723196E-01
C13  6.420861359758E-02  1.038771318880E-01  9.490334233911E-02
C14 -4.306055729557E-02 -2.269354267186E-01  1.284737650646E-01
C15  8.467083441561E-02  2.135724093121E-01  3.057721514050E-02
C16 -2.282981694432E-02 -1.169973851008E-01  6.327786740474E-02
H17 -1.077400401001E-01 -3.920483083821E-01  1.049156821816E-01
H18  1.498776203956E-01  3.783483780950E-01  5.410134088248E-02
C19  2.282981694432E-02  1.169973851008E-01 -6.327786740474E-02
C20 -8.467083441561E-02 -2.135724093121E-01 -3.057721514050E-02
C21  4.306055729557E-02  2.269354267186E-01 -1.284737650646E-01
C22 -6.420861359758E-02 -1.038771318880E-01 -9.490334233911E-02
H23 -1.498776203956E-01 -3.783483780950E-01 -5.410134088248E-02
H24  1.077400401001E-01  3.920483083821E-01 -1.049156821816E-01
C25 -1.709192739922E-02  1.295789167634E-01 -2.212256725612E-01
C26 -1.251167770189E-01 -2.008921985500E-01 -1.896752706891E-01
C27  4.308535468442E-03  2.401384804150E-01 -2.875074876747E-01
C28 -1.028745851944E-01 -9.171935925721E-02 -2.527830236058E-01
H29 -1.901452565493E-01 -3.658310617152E-01 -2.132559723196E-01
H30  6.890840985538E-02  4.052893315640E-01 -2.637169632675E-01
C31 -5.450911280593E-02  1.403658311116E-01 -3.782666552133E-01
C32 -1.613921492850E-01 -1.899850839877E-01 -3.489019907767E-01
H33 -3.663453072207E-02  2.262790331598E-01 -4.275233445122E-01
C34 -1.382261696095E-01 -7.841642817030E-02 -4.094025662294E-01
H35 -2.228866607726E-01 -3.569552268101E-01 -3.719330597569E-01
H36 -1.830305635405E-01 -1.549576002939E-01 -4.819134258835E-01
C37 -4.443990123118E-01 -4.352714755240E-01  3.968263427251E-01
H38 -4.612040948565E-01 -3.615510590687E-01  4.608001725901E-01
C39 -4.974501390782E-01 -3.181916404758E-01  3.270713241926E-01
C40 -3.656787732168E-01  3.457296758762E-01  3.870141842348E-01
H41  4.439156561805E-01 -1.516125509670E-01  3.349430794320E-01
C42 -4.782153132304E-01 -4.128179828026E-01  2.415739549867E-01
H43 -3.239922993953E-01  2.561424954657E-01  4.436952921571E-01
C44 -3.430397997900E-01  2.499860274612E-01  3.074672507638E-01
C45  4.650041935641E-01 -3.001281675298E-01  1.686352614299E-01
C46 -3.990892429246E-01  3.645887476793E-01  2.314500924953E-01
H47 -2.829241475493E-01  8.434847010826E-02  3.000178478090E-01
H48  4.056416980411E-01 -1.338557101083E-01  1.762078551141E-01
C49  4.815849773567E-01 -3.961934635280E-01  8.407205547940E-02
C50 -3.809742521273E-01  2.688267495786E-01  1.490951326904E-01
C51  4.229122324493E-01 -2.844602524308E-01  9.740426607760E-03
C52 -4.391355803297E-01  3.810645731801E-01  7.396723327099E-02
H53 -3.221100164681E-01  1.022895602707E-01  1.414668663735E-01
H54  3.637883155612E-01 -1.180913652691E-01  1.736525289422E-02
C55  4.391355803297E-01 -3.810645731801E-01 -7.396723327099E-02
C56 -4.229122324493E-01  2.844602524308E-01 -9.740426607760E-03
C57  3.809742521273E-01 -2.688267495786E-01 -1.490951326904E-01
C58 -4.815849773567E-01  3.961934635280E-01 -8.407205547940E-02
H59 -3.637883155612E-01  1.180913652691E-01 -1.736525289422E-02
H60  3.221100164681E-01 -1.022895602707E-01 -1.414668663735E-01
C61  3.990892429246E-01 -3.645887476793E-01 -2.314500924953E-01
C62 -4.650041935641E-01  3.001281675298E-01 -1.686352614299E-01
C63  3.430397997900E-01 -2.499860274612E-01 -3.074672507638E-01
C64  4.782153132304E-01  4.128179828026E-01 -2.415739549867E-01
H65 -4.056416980411E-01  1.338557101083E-01 -1.762078551141E-01
H66  2.829241475493E-01 -8.434847010826E-02 -3.000178478090E-01
C67  3.656787732168E-01 -3.457296758762E-01 -3.870141842348E-01
C68  4.974501390782E-01  3.181916404758E-01 -3.270713241926E-01
H69  3.239922993953E-01 -2.561424954657E-01 -4.436952921571E-01
C70  4.443990123118E-01  4.352714755240E-01 -3.968263427251E-01
H71 -4.439156561805E-01  1.516125509670E-01 -3.349430794320E-01
H72  4.612040948565E-01  3.615510590687E-01 -4.608001725901E-01


#===END
