###############################################################################
#
#                    CRYSTAL17 CIF FILE
#
###############################################################################

data_OPT_STEP_1

_symmetry_space_group_name_H-M 'P 1'
_cell_length_a      7.90000000
_cell_length_b      6.06000000
_cell_length_c     16.01000000
_cell_angle_alpha  101.900002
_cell_angle_beta  112.599998
_cell_angle_gamma   85.800003

loop_
_atom_site_label
_atom_site_fract_x
_atom_site_fract_y
_atom_site_fract_z
C1  1.263091325195E-01  4.621379375183E-02  4.061362188668E-01
C2 -1.263091325195E-01 -4.621379375183E-02 -4.061362188668E-01
C3 -1.830830375538E-02 -2.630768692467E-01  2.803086312816E-01
C4  1.830830375538E-02  2.630768692467E-01 -2.803086312816E-01
C5  4.007305597035E-02 -1.707602003623E-01  3.717396148244E-01
C6 -4.007305597035E-02  1.707602003623E-01 -3.717396148244E-01
C7  1.520648998646E-01  1.636920963275E-01  3.480941431312E-01
C8 -1.520648998646E-01 -1.636920963275E-01 -3.480941431312E-01
C9  9.444647351163E-02  7.293875427045E-02  2.513250457359E-01
C10 -9.444647351163E-02 -7.293875427045E-02 -2.513250457359E-01
C11  1.207563680596E-01  1.875313732799E-01  1.908278904583E-01
C12 -1.207563680596E-01 -1.875313732799E-01 -1.908278904583E-01
C13  6.186747340316E-02  9.723476311991E-02  9.550925553179E-02
C14 -6.186747340316E-02 -9.723476311991E-02 -9.550925553179E-02
C15  8.720787813157E-02  2.120082092733E-01  3.384089131663E-02
C16 -8.720787813157E-02 -2.120082092733E-01 -3.384089131663E-02
C17 -2.771913218887E-02 -1.217605851263E-01  6.055521204619E-02
C18  2.771913218887E-02  1.217605851263E-01 -6.055521204619E-02
C19 -5.242327327253E-02 -2.370847294206E-01  1.231392601199E-01
C20  5.242327327253E-02  2.370847294206E-01 -1.231392601199E-01
C21  6.210875909839E-03 -1.465453516402E-01  2.164791629257E-01
C22 -6.210875909839E-03  1.465453516402E-01 -2.164791629257E-01
H23  1.709549932255E-01  1.172954978378E-01  4.791458782687E-01
H24 -1.709549932255E-01 -1.172954978378E-01 -4.791458782687E-01
H25 -8.447536368236E-02 -4.269340101622E-01  2.541481928645E-01
H26  8.447536368236E-02  4.269340101622E-01 -2.541481928645E-01
H27  2.014757658425E-02 -2.616570612106E-01  4.189386916389E-01
H28 -2.014757658425E-02  2.616570612106E-01 -4.189386916389E-01
H29  2.153137091627E-01  3.295356793690E-01  3.735503344169E-01
H30 -2.153137091627E-01 -3.295356793690E-01 -3.735503344169E-01
H31  1.877606531906E-01  3.511066531466E-01  2.169433424548E-01
H32 -1.877606531906E-01 -3.511066531466E-01 -2.169433424548E-01
H33  1.542110406927E-01  3.755502740983E-01  5.983252743707E-02
H34 -1.542110406927E-01 -3.755502740983E-01 -5.983252743707E-02
H35 -1.187962605786E-01 -4.009920729312E-01  9.712313454985E-02
H36  1.187962605786E-01  4.009920729312E-01 -9.712313454985E-02
C37 -4.474958305607E-01 -4.278436125390E-01  3.969355216350E-01
C38  4.474958305607E-01  4.278436125390E-01 -3.969355216350E-01
C39  4.968820221417E-01 -3.140559858195E-01  3.260958699212E-01
C40 -4.968820221417E-01  3.140559858195E-01 -3.260958699212E-01
C41 -4.853857347251E-01 -4.116542743150E-01  2.404385275185E-01
C42  4.853857347251E-01  4.116542743150E-01 -2.404385275185E-01
C43  4.590507343585E-01 -2.998550434275E-01  1.671962617103E-01
C44 -4.590507343585E-01  2.998550434275E-01 -1.671962617103E-01
C45  4.780754680674E-01 -3.965152086214E-01  8.323889870114E-02
C46 -4.780754680674E-01  3.965152086214E-01 -8.323889870114E-02
C47  4.232769018298E-01 -2.840171967052E-01  9.162786176149E-03
C48 -4.232769018298E-01  2.840171967052E-01 -9.162786176149E-03
C49 -4.430745965363E-01  3.804645982179E-01  7.374275723360E-02
C50  4.430745965363E-01 -3.804645982179E-01 -7.374275723360E-02
C51 -3.876387203475E-01  2.682366468202E-01  1.488989127711E-01
C52  3.876387203475E-01 -2.682366468202E-01 -1.488989127711E-01
C53 -4.065819218611E-01  3.655123107543E-01  2.309886003952E-01
C54  4.065819218611E-01 -3.655123107543E-01 -2.309886003952E-01
C55 -3.491968928146E-01  2.534513945326E-01  3.078582041942E-01
C56  3.491968928146E-01 -2.534513945326E-01 -3.078582041942E-01
C57 -3.691316349612E-01  3.528157713308E-01  3.877646097666E-01
C58  3.691316349612E-01 -3.528157713308E-01 -3.877646097666E-01
H59 -4.618429762644E-01 -3.512292525881E-01  4.612544494095E-01
H60  4.618429762644E-01  3.512292525881E-01 -4.612544494095E-01
H61  4.383032244857E-01 -1.473421973783E-01  3.333726809677E-01
H62 -4.383032244857E-01  1.473421973783E-01 -3.333726809677E-01
H63  4.001121250972E-01 -1.332740369217E-01  1.743491207634E-01
H64 -4.001121250972E-01  1.332740369217E-01 -1.743491207634E-01
H65  3.642665612119E-01 -1.174761656417E-01  1.630409444450E-02
H66 -3.642665612119E-01  1.174761656417E-01 -1.630409444450E-02
H67 -3.284466151580E-01  1.017565055907E-01  1.418678061648E-01
H68  3.284466151580E-01 -1.017565055907E-01 -1.418678061648E-01
H69 -2.891165340293E-01  8.760160833286E-02  3.009606513881E-01
H70  2.891165340293E-01 -8.760160833286E-02 -3.009606513881E-01
H71 -3.250629273439E-01  2.659884841526E-01  4.453393785156E-01
H72  3.250629273439E-01 -2.659884841526E-01 -4.453393785156E-01


#===END

data_OPT_STEP_2

_symmetry_space_group_name_H-M 'P 1'
_cell_length_a      7.90000000
_cell_length_b      6.06000000
_cell_length_c     16.01000000
_cell_angle_alpha  101.900002
_cell_angle_beta  112.599998
_cell_angle_gamma   85.800003

loop_
_atom_site_label
_atom_site_fract_x
_atom_site_fract_y
_atom_site_fract_z
C1  1.263091325195E-01  4.621379375183E-02  4.061362188668E-01
C2 -1.263091325195E-01 -4.621379375183E-02 -4.061362188668E-01
C3 -1.830830375538E-02 -2.630768692467E-01  2.803086312816E-01
C4  1.830830375538E-02  2.630768692467E-01 -2.803086312816E-01
C5  4.007305597035E-02 -1.707602003623E-01  3.717396148244E-01
C6 -4.007305597035E-02  1.707602003623E-01 -3.717396148244E-01
C7  1.520648998646E-01  1.636920963275E-01  3.480941431312E-01
C8 -1.520648998646E-01 -1.636920963275E-01 -3.480941431312E-01
C9  9.444647351163E-02  7.293875427045E-02  2.513250457359E-01
C10 -9.444647351163E-02 -7.293875427045E-02 -2.513250457359E-01
C11  1.207563680596E-01  1.875313732799E-01  1.908278904583E-01
C12 -1.207563680596E-01 -1.875313732799E-01 -1.908278904583E-01
C13  6.186747340316E-02  9.723476311991E-02  9.550925553179E-02
C14 -6.186747340316E-02 -9.723476311991E-02 -9.550925553179E-02
C15  8.720787813157E-02  2.120082092733E-01  3.384089131663E-02
C16 -8.720787813157E-02 -2.120082092733E-01 -3.384089131663E-02
C17 -2.771913218887E-02 -1.217605851263E-01  6.055521204619E-02
C18  2.771913218887E-02  1.217605851263E-01 -6.055521204619E-02
C19 -5.242327327253E-02 -2.370847294206E-01  1.231392601199E-01
C20  5.242327327253E-02  2.370847294206E-01 -1.231392601199E-01
C21  6.210875909839E-03 -1.465453516402E-01  2.164791629257E-01
C22 -6.210875909839E-03  1.465453516402E-01 -2.164791629257E-01
H23  1.709549932255E-01  1.172954978378E-01  4.791458782687E-01
H24 -1.709549932255E-01 -1.172954978378E-01 -4.791458782687E-01
H25 -8.447536368236E-02 -4.269340101622E-01  2.541481928645E-01
H26  8.447536368236E-02  4.269340101622E-01 -2.541481928645E-01
H27  2.014757658425E-02 -2.616570612106E-01  4.189386916389E-01
H28 -2.014757658425E-02  2.616570612106E-01 -4.189386916389E-01
H29  2.153137091627E-01  3.295356793690E-01  3.735503344169E-01
H30 -2.153137091627E-01 -3.295356793690E-01 -3.735503344169E-01
H31  1.877606531906E-01  3.511066531466E-01  2.169433424548E-01
H32 -1.877606531906E-01 -3.511066531466E-01 -2.169433424548E-01
H33  1.542110406927E-01  3.755502740983E-01  5.983252743707E-02
H34 -1.542110406927E-01 -3.755502740983E-01 -5.983252743707E-02
H35 -1.187962605786E-01 -4.009920729312E-01  9.712313454985E-02
H36  1.187962605786E-01  4.009920729312E-01 -9.712313454985E-02
C37 -4.474958305607E-01 -4.278436125390E-01  3.969355216350E-01
C38  4.474958305607E-01  4.278436125390E-01 -3.969355216350E-01
C39  4.968820221417E-01 -3.140559858195E-01  3.260958699212E-01
C40 -4.968820221417E-01  3.140559858195E-01 -3.260958699212E-01
C41 -4.853857347251E-01 -4.116542743150E-01  2.404385275185E-01
C42  4.853857347251E-01  4.116542743150E-01 -2.404385275185E-01
C43  4.590507343585E-01 -2.998550434275E-01  1.671962617103E-01
C44 -4.590507343585E-01  2.998550434275E-01 -1.671962617103E-01
C45  4.780754680674E-01 -3.965152086214E-01  8.323889870114E-02
C46 -4.780754680674E-01  3.965152086214E-01 -8.323889870114E-02
C47  4.232769018298E-01 -2.840171967052E-01  9.162786176149E-03
C48 -4.232769018298E-01  2.840171967052E-01 -9.162786176149E-03
C49 -4.430745965363E-01  3.804645982179E-01  7.374275723360E-02
C50  4.430745965363E-01 -3.804645982179E-01 -7.374275723360E-02
C51 -3.876387203475E-01  2.682366468202E-01  1.488989127711E-01
C52  3.876387203475E-01 -2.682366468202E-01 -1.488989127711E-01
C53 -4.065819218611E-01  3.655123107543E-01  2.309886003952E-01
C54  4.065819218611E-01 -3.655123107543E-01 -2.309886003952E-01
C55 -3.491968928146E-01  2.534513945326E-01  3.078582041942E-01
C56  3.491968928146E-01 -2.534513945326E-01 -3.078582041942E-01
C57 -3.691316349612E-01  3.528157713308E-01  3.877646097666E-01
C58  3.691316349612E-01 -3.528157713308E-01 -3.877646097666E-01
H59 -4.618429762644E-01 -3.512292525881E-01  4.612544494095E-01
H60  4.618429762644E-01  3.512292525881E-01 -4.612544494095E-01
H61  4.383032244857E-01 -1.473421973783E-01  3.333726809677E-01
H62 -4.383032244857E-01  1.473421973783E-01 -3.333726809677E-01
H63  4.001121250972E-01 -1.332740369217E-01  1.743491207634E-01
H64 -4.001121250972E-01  1.332740369217E-01 -1.743491207634E-01
H65  3.642665612119E-01 -1.174761656417E-01  1.630409444450E-02
H66 -3.642665612119E-01  1.174761656417E-01 -1.630409444450E-02
H67 -3.284466151580E-01  1.017565055907E-01  1.418678061648E-01
H68  3.284466151580E-01 -1.017565055907E-01 -1.418678061648E-01
H69 -2.891165340293E-01  8.760160833286E-02  3.009606513881E-01
H70  2.891165340293E-01 -8.760160833286E-02 -3.009606513881E-01
H71 -3.250629273439E-01  2.659884841526E-01  4.453393785156E-01
H72  3.250629273439E-01 -2.659884841526E-01 -4.453393785156E-01


#===END
