###############################################################################
#
#                    CRYSTAL17 CIF FILE
#
###############################################################################

data_OPT_STEP_1

_symmetry_space_group_name_H-M 'P 1'
_cell_length_a      9.45830000
_cell_length_b      6.01000000
_cell_length_c      8.55760000
_cell_angle_alpha   90.000000
_cell_angle_beta  103.583000
_cell_angle_gamma   90.000000

loop_
_atom_site_label
_atom_site_fract_x
_atom_site_fract_y
_atom_site_fract_z
C1 -3.619500000000E-01 -4.183000000000E-01 -4.209400000000E-01
C2  3.619500000000E-01  8.170000000000E-02 -7.906000000000E-02
C3  3.619500000000E-01  4.183000000000E-01  4.209400000000E-01
C4 -3.619500000000E-01 -8.170000000000E-02  7.906000000000E-02
C5 -2.207000000000E-01 -3.458000000000E-01 -3.383000000000E-01
C6  2.207000000000E-01  1.542000000000E-01 -1.617000000000E-01
C7  2.207000000000E-01  3.458000000000E-01  3.383000000000E-01
C8 -2.207000000000E-01 -1.542000000000E-01  1.617000000000E-01
H9 -1.894000000000E-01 -1.990000000000E-01 -3.688000000000E-01
H10  1.894000000000E-01  3.010000000000E-01 -1.312000000000E-01
H11  1.894000000000E-01  1.990000000000E-01  3.688000000000E-01
H12 -1.894000000000E-01 -3.010000000000E-01  1.312000000000E-01
C13 -1.362000000000E-01 -4.706000000000E-01 -2.228000000000E-01
C14  1.362000000000E-01  2.940000000000E-02 -2.772000000000E-01
C15  1.362000000000E-01  4.706000000000E-01  2.228000000000E-01
C16 -1.362000000000E-01 -2.940000000000E-02  2.772000000000E-01
H17 -3.900000000000E-02 -4.200000000000E-01 -1.660000000000E-01
H18  3.900000000000E-02  8.000000000000E-02 -3.340000000000E-01
H19  3.900000000000E-02  4.200000000000E-01  1.660000000000E-01
H20 -3.900000000000E-02 -8.000000000000E-02  3.340000000000E-01
C21 -1.847000000000E-01  3.205000000000E-01 -1.809000000000E-01
C22  1.847000000000E-01 -1.795000000000E-01 -3.191000000000E-01
C23  1.847000000000E-01 -3.205000000000E-01  1.809000000000E-01
C24 -1.847000000000E-01  1.795000000000E-01  3.191000000000E-01
H25 -1.230000000000E-01  2.260000000000E-01 -9.600000000000E-02
H26  1.230000000000E-01 -2.740000000000E-01 -4.040000000000E-01
H27  1.230000000000E-01 -2.260000000000E-01  9.600000000000E-02
H28 -1.230000000000E-01  2.740000000000E-01  4.040000000000E-01
C29 -3.168000000000E-01  2.430000000000E-01 -2.570700000000E-01
C30  3.168000000000E-01 -2.570000000000E-01 -2.429300000000E-01
C31  3.168000000000E-01 -2.430000000000E-01  2.570700000000E-01
C32 -3.168000000000E-01  2.570000000000E-01  2.429300000000E-01
H33 -3.562000000000E-01  8.800000000000E-02 -2.327000000000E-01
H34  3.562000000000E-01 -4.120000000000E-01 -2.673000000000E-01
H35  3.562000000000E-01 -8.800000000000E-02  2.327000000000E-01
H36 -3.562000000000E-01  4.120000000000E-01  2.673000000000E-01
C37 -4.109500000000E-01  3.686000000000E-01 -3.803300000000E-01
C38  4.109500000000E-01 -1.314000000000E-01 -1.196700000000E-01
C39  4.109500000000E-01 -3.686000000000E-01  3.803300000000E-01
C40 -4.109500000000E-01  1.314000000000E-01  1.196700000000E-01
C41 -4.527900000000E-01 -2.931000000000E-01  4.598900000000E-01
C42  4.527900000000E-01  2.069000000000E-01  4.011000000000E-02
C43  4.527900000000E-01  2.931000000000E-01 -4.598900000000E-01
C44 -4.527900000000E-01 -2.069000000000E-01 -4.011000000000E-02
H45 -4.163000000000E-01 -1.410000000000E-01  4.324000000000E-01
H46  4.163000000000E-01  3.590000000000E-01  6.760000000000E-02
H47  4.163000000000E-01  1.410000000000E-01 -4.324000000000E-01
H48 -4.163000000000E-01 -3.590000000000E-01 -6.760000000000E-02


#===END

data_OPT_STEP_2

_symmetry_space_group_name_H-M 'P 1'
_cell_length_a      9.45830000
_cell_length_b      6.01000000
_cell_length_c      8.55760000
_cell_angle_alpha   90.000000
_cell_angle_beta  103.583000
_cell_angle_gamma   90.000000

loop_
_atom_site_label
_atom_site_fract_x
_atom_site_fract_y
_atom_site_fract_z
C1 -3.619500000000E-01 -4.183000000000E-01 -4.209400000000E-01
C2  3.619500000000E-01  8.170000000000E-02 -7.906000000000E-02
C3  3.619500000000E-01  4.183000000000E-01  4.209400000000E-01
C4 -3.619500000000E-01 -8.170000000000E-02  7.906000000000E-02
C5 -2.207000000000E-01 -3.458000000000E-01 -3.383000000000E-01
C6  2.207000000000E-01  1.542000000000E-01 -1.617000000000E-01
C7  2.207000000000E-01  3.458000000000E-01  3.383000000000E-01
C8 -2.207000000000E-01 -1.542000000000E-01  1.617000000000E-01
H9 -1.894000000000E-01 -1.990000000000E-01 -3.688000000000E-01
H10  1.894000000000E-01  3.010000000000E-01 -1.312000000000E-01
H11  1.894000000000E-01  1.990000000000E-01  3.688000000000E-01
H12 -1.894000000000E-01 -3.010000000000E-01  1.312000000000E-01
C13 -1.362000000000E-01 -4.706000000000E-01 -2.228000000000E-01
C14  1.362000000000E-01  2.940000000000E-02 -2.772000000000E-01
C15  1.362000000000E-01  4.706000000000E-01  2.228000000000E-01
C16 -1.362000000000E-01 -2.940000000000E-02  2.772000000000E-01
H17 -3.900000000000E-02 -4.200000000000E-01 -1.660000000000E-01
H18  3.900000000000E-02  8.000000000000E-02 -3.340000000000E-01
H19  3.900000000000E-02  4.200000000000E-01  1.660000000000E-01
H20 -3.900000000000E-02 -8.000000000000E-02  3.340000000000E-01
C21 -1.847000000000E-01  3.205000000000E-01 -1.809000000000E-01
C22  1.847000000000E-01 -1.795000000000E-01 -3.191000000000E-01
C23  1.847000000000E-01 -3.205000000000E-01  1.809000000000E-01
C24 -1.847000000000E-01  1.795000000000E-01  3.191000000000E-01
H25 -1.230000000000E-01  2.260000000000E-01 -9.600000000000E-02
H26  1.230000000000E-01 -2.740000000000E-01 -4.040000000000E-01
H27  1.230000000000E-01 -2.260000000000E-01  9.600000000000E-02
H28 -1.230000000000E-01  2.740000000000E-01  4.040000000000E-01
C29 -3.168000000000E-01  2.430000000000E-01 -2.570700000000E-01
C30  3.168000000000E-01 -2.570000000000E-01 -2.429300000000E-01
C31  3.168000000000E-01 -2.430000000000E-01  2.570700000000E-01
C32 -3.168000000000E-01  2.570000000000E-01  2.429300000000E-01
H33 -3.562000000000E-01  8.800000000000E-02 -2.327000000000E-01
H34  3.562000000000E-01 -4.120000000000E-01 -2.673000000000E-01
H35  3.562000000000E-01 -8.800000000000E-02  2.327000000000E-01
H36 -3.562000000000E-01  4.120000000000E-01  2.673000000000E-01
C37 -4.109500000000E-01  3.686000000000E-01 -3.803300000000E-01
C38  4.109500000000E-01 -1.314000000000E-01 -1.196700000000E-01
C39  4.109500000000E-01 -3.686000000000E-01  3.803300000000E-01
C40 -4.109500000000E-01  1.314000000000E-01  1.196700000000E-01
C41 -4.527900000000E-01 -2.931000000000E-01  4.598900000000E-01
C42  4.527900000000E-01  2.069000000000E-01  4.011000000000E-02
C43  4.527900000000E-01  2.931000000000E-01 -4.598900000000E-01
C44 -4.527900000000E-01 -2.069000000000E-01 -4.011000000000E-02
H45 -4.163000000000E-01 -1.410000000000E-01  4.324000000000E-01
H46  4.163000000000E-01  3.590000000000E-01  6.760000000000E-02
H47  4.163000000000E-01  1.410000000000E-01 -4.324000000000E-01
H48 -4.163000000000E-01 -3.590000000000E-01 -6.760000000000E-02


#===END

data_OPT_STEP_3

_symmetry_space_group_name_H-M 'P 1'
_cell_length_a      9.47472116
_cell_length_b      6.00709085
_cell_length_c      8.52685425
_cell_angle_alpha   90.000000
_cell_angle_beta  102.878404
_cell_angle_gamma   90.000000

loop_
_atom_site_label
_atom_site_fract_x
_atom_site_fract_y
_atom_site_fract_z
C1 -3.625689790339E-01 -4.170681488872E-01 -4.207970423118E-01
C2  3.625689790339E-01  8.293185111281E-02 -7.920295768819E-02
C3  3.625689790339E-01  4.170681488872E-01  4.207970423118E-01
C4 -3.625689790339E-01 -8.293185111281E-02  7.920295768819E-02
C5 -2.222273942928E-01 -3.422753301808E-01 -3.378079053124E-01
C6  2.222273942928E-01  1.577246698192E-01 -1.621920946876E-01
C7  2.222273942928E-01  3.422753301808E-01  3.378079053124E-01
C8 -2.222273942928E-01 -1.577246698192E-01  1.621920946876E-01
H9 -1.896814779200E-01 -1.907928916907E-01 -3.689456031293E-01
H10  1.896814779200E-01  3.092071083093E-01 -1.310543968707E-01
H11  1.896814779200E-01  1.907928916907E-01  3.689456031293E-01
H12 -1.896814779200E-01 -3.092071083093E-01  1.310543968707E-01
C13 -1.369561835554E-01 -4.692824084844E-01 -2.230134384860E-01
C14  1.369561835554E-01  3.071759151563E-02 -2.769865615140E-01
C15  1.369561835554E-01  4.692824084844E-01  2.230134384860E-01
C16 -1.369561835554E-01 -3.071759151563E-02  2.769865615140E-01
H17 -3.769615345745E-02 -4.156938585524E-01 -1.649562876325E-01
H18  3.769615345745E-02  8.430614144763E-02 -3.350437123675E-01
H19  3.769615345745E-02  4.156938585524E-01  1.649562876325E-01
H20 -3.769615345745E-02 -8.430614144763E-02  3.350437123675E-01
C21 -1.845592166442E-01  3.179426404900E-01 -1.826027900046E-01
C22  1.845592166442E-01 -1.820573595100E-01 -3.173972099954E-01
C23  1.845592166442E-01 -3.179426404900E-01  1.826027900046E-01
C24 -1.845592166442E-01  1.820573595100E-01  3.173972099954E-01
H25 -1.209147838637E-01  2.210755354282E-01 -9.607710972157E-02
H26  1.209147838637E-01 -2.789244645718E-01 -4.039228902784E-01
H27  1.209147838637E-01 -2.210755354282E-01  9.607710972157E-02
H28 -1.209147838637E-01  2.789244645718E-01  4.039228902784E-01
C29 -3.167026247078E-01  2.393823501579E-01 -2.588528167359E-01
C30  3.167026247078E-01 -2.606176498421E-01 -2.411471832641E-01
C31  3.167026247078E-01 -2.393823501579E-01  2.588528167359E-01
C32 -3.167026247078E-01  2.606176498421E-01  2.411471832641E-01
H33 -3.565346107684E-01  8.255731120934E-02 -2.316524076879E-01
H34  3.565346107684E-01 -4.174426887907E-01 -2.683475923121E-01
H35  3.565346107684E-01 -8.255731120934E-02  2.316524076879E-01
H36 -3.565346107684E-01  4.174426887907E-01  2.683475923121E-01
C37 -4.108111365216E-01  3.670188995096E-01 -3.810372607174E-01
C38  4.108111365216E-01 -1.329811004904E-01 -1.189627392826E-01
C39  4.108111365216E-01 -3.670188995096E-01  3.810372607174E-01
C40 -4.108111365216E-01  1.329811004904E-01  1.189627392826E-01
C41 -4.533247297190E-01 -2.899696441760E-01  4.607545911248E-01
C42  4.533247297190E-01  2.100303558240E-01  3.924540887521E-02
C43  4.533247297190E-01  2.899696441760E-01 -4.607545911248E-01
C44 -4.533247297190E-01 -2.100303558240E-01 -3.924540887521E-02
H45 -4.165273359233E-01 -1.343092026148E-01  4.320647040255E-01
H46  4.165273359233E-01  3.656907973852E-01  6.793529597453E-02
H47  4.165273359233E-01  1.343092026148E-01 -4.320647040255E-01
H48 -4.165273359233E-01 -3.656907973852E-01 -6.793529597453E-02


#===END

data_OPT_STEP_4

_symmetry_space_group_name_H-M 'P 1'
_cell_length_a      9.52288882
_cell_length_b      6.16313709
_cell_length_c      8.47958949
_cell_angle_alpha   90.000000
_cell_angle_beta  102.193338
_cell_angle_gamma   90.000000

loop_
_atom_site_label
_atom_site_fract_x
_atom_site_fract_y
_atom_site_fract_z
C1 -3.627990098506E-01 -4.192635192904E-01 -4.222213852653E-01
C2  3.627990098506E-01  8.073648070955E-02 -7.777861473470E-02
C3  3.627990098506E-01  4.192635192904E-01  4.222213852653E-01
C4 -3.627990098506E-01 -8.073648070955E-02  7.777861473470E-02
C5 -2.224920185779E-01 -3.462351066790E-01 -3.420128913584E-01
C6  2.224920185779E-01  1.537648933210E-01 -1.579871086416E-01
C7  2.224920185779E-01  3.462351066790E-01  3.420128913584E-01
C8 -2.224920185779E-01 -1.537648933210E-01  1.579871086416E-01
H9 -1.910711538166E-01 -1.868436038360E-01 -3.676691150046E-01
H10  1.910711538166E-01  3.131563961640E-01 -1.323308849954E-01
H11  1.910711538166E-01  1.868436038360E-01  3.676691150046E-01
H12 -1.910711538166E-01 -3.131563961640E-01  1.323308849954E-01
C13 -1.363197919777E-01 -4.729697964235E-01 -2.283538280853E-01
C14  1.363197919777E-01  2.703020357653E-02 -2.716461719147E-01
C15  1.363197919777E-01  4.729697964235E-01  2.283538280853E-01
C16 -1.363197919777E-01 -2.703020357653E-02  2.716461719147E-01
H17 -3.425057770344E-02 -4.167820972986E-01 -1.679587152910E-01
H18  3.425057770344E-02  8.321790270138E-02 -3.320412847090E-01
H19  3.425057770344E-02  4.167820972986E-01  1.679587152910E-01
H20 -3.425057770344E-02 -8.321790270138E-02  3.320412847090E-01
C21 -1.864400340261E-01  3.223995435388E-01 -1.825688131464E-01
C22  1.864400340261E-01 -1.776004564612E-01 -3.174311868536E-01
C23  1.864400340261E-01 -3.223995435388E-01  1.825688131464E-01
C24 -1.864400340261E-01  1.776004564612E-01  3.174311868536E-01
H25 -1.191044452056E-01  2.252906045753E-01 -9.365322866092E-02
H26  1.191044452056E-01 -2.747093954247E-01 -4.063467713391E-01
H27  1.191044452056E-01 -2.252906045753E-01  9.365322866092E-02
H28 -1.191044452056E-01  2.747093954247E-01  4.063467713391E-01
C29 -3.178294144040E-01  2.439683438589E-01 -2.595399300215E-01
C30  3.178294144040E-01 -2.560316561411E-01 -2.404600699785E-01
C31  3.178294144040E-01 -2.439683438589E-01  2.595399300215E-01
C32 -3.178294144040E-01  2.560316561411E-01  2.404600699785E-01
H33 -3.524700593441E-01  8.067325991980E-02 -2.367164672150E-01
H34  3.524700593441E-01 -4.193267400802E-01 -2.632835327850E-01
H35  3.524700593441E-01 -8.067325991980E-02  2.367164672150E-01
H36 -3.524700593441E-01  4.193267400802E-01  2.632835327850E-01
C37 -4.110884540519E-01  3.697818550204E-01 -3.810794784513E-01
C38  4.110884540519E-01 -1.302181449796E-01 -1.189205215487E-01
C39  4.110884540519E-01 -3.697818550204E-01  3.810794784513E-01
C40 -4.110884540519E-01  1.302181449796E-01  1.189205215487E-01
C41 -4.539585021973E-01 -2.924580411217E-01  4.613139542613E-01
C42  4.539585021973E-01  2.075419588783E-01  3.868604573874E-02
C43  4.539585021973E-01  2.924580411217E-01 -4.613139542613E-01
C44 -4.539585021973E-01 -2.075419588783E-01 -3.868604573874E-02
H45 -4.207070694841E-01 -1.298496348305E-01  4.373269559518E-01
H46  4.207070694841E-01  3.701503651695E-01  6.267304404817E-02
H47  4.207070694841E-01  1.298496348305E-01 -4.373269559518E-01
H48 -4.207070694841E-01 -3.701503651695E-01 -6.267304404817E-02


#===END

data_OPT_STEP_5

_symmetry_space_group_name_H-M 'P 1'
_cell_length_a      9.38361900
_cell_length_b      6.15440216
_cell_length_c      8.25412592
_cell_angle_alpha   90.000000
_cell_angle_beta   99.614316
_cell_angle_gamma   90.000000

loop_
_atom_site_label
_atom_site_fract_x
_atom_site_fract_y
_atom_site_fract_z
C1 -3.656233152028E-01 -4.121566861185E-01 -4.190890764397E-01
C2  3.656233152028E-01  8.784331388149E-02 -8.091092356029E-02
C3  3.656233152028E-01  4.121566861185E-01  4.190890764397E-01
C4 -3.656233152028E-01 -8.784331388149E-02  8.091092356029E-02
C5 -2.283581141095E-01 -3.309755920440E-01 -3.361000883639E-01
C6  2.283581141095E-01  1.690244079560E-01 -1.638999116361E-01
C7  2.283581141095E-01  3.309755920440E-01  3.361000883639E-01
C8 -2.283581141095E-01 -1.690244079560E-01  1.638999116361E-01
H9 -1.958280939409E-01 -1.646804719021E-01 -3.621807068547E-01
H10  1.958280939409E-01  3.353195280979E-01 -1.378192931453E-01
H11  1.958280939409E-01  1.646804719021E-01  3.621807068547E-01
H12 -1.958280939409E-01 -3.353195280979E-01  1.378192931453E-01
C13 -1.408145370106E-01 -4.598517636319E-01 -2.237734302815E-01
C14  1.408145370106E-01  4.014823636815E-02 -2.762265697185E-01
C15  1.408145370106E-01  4.598517636319E-01  2.237734302815E-01
C16 -1.408145370106E-01 -4.014823636815E-02  2.762265697185E-01
H17 -3.677043941730E-02 -3.978008069943E-01 -1.611568255659E-01
H18  3.677043941730E-02  1.021991930057E-01 -3.388431744341E-01
H19  3.677043941730E-02  3.978008069943E-01  1.611568255659E-01
H20 -3.677043941730E-02 -1.021991930057E-01  3.388431744341E-01
C21 -1.801717658742E-01  3.150491681883E-01 -1.959722691688E-01
C22  1.801717658742E-01 -1.849508318117E-01 -3.040277308312E-01
C23  1.801717658742E-01 -3.150491681883E-01  1.959722691688E-01
C24 -1.801717658742E-01  1.849508318117E-01  3.040277308312E-01
H25 -1.070475640345E-01  2.129266414900E-01 -1.090682031535E-01
H26  1.070475640345E-01 -2.870733585100E-01 -3.909317968465E-01
H27  1.070475640345E-01 -2.129266414900E-01  1.090682031535E-01
H28 -1.070475640345E-01  2.870733585100E-01  3.909317968465E-01
C29 -3.133381980661E-01  2.365721037425E-01 -2.683003155941E-01
C30  3.133381980661E-01 -2.634278962575E-01 -2.316996844059E-01
C31  3.133381980661E-01 -2.365721037425E-01  2.683003155941E-01
C32 -3.133381980661E-01  2.634278962575E-01  2.316996844059E-01
H33 -3.526359807221E-01  7.820690819624E-02 -2.309626247341E-01
H34  3.526359807221E-01 -4.217930918038E-01 -2.690373752659E-01
H35  3.526359807221E-01 -7.820690819624E-02  2.309626247341E-01
H36 -3.526359807221E-01  4.217930918038E-01  2.690373752659E-01
C37 -4.070492152465E-01  3.639226035597E-01 -3.880508374552E-01
C38  4.070492152465E-01 -1.360773964403E-01 -1.119491625448E-01
C39  4.070492152465E-01 -3.639226035597E-01  3.880508374552E-01
C40 -4.070492152465E-01  1.360773964403E-01  1.119491625448E-01
C41 -4.565600312632E-01 -2.859768348563E-01  4.637980546448E-01
C42  4.565600312632E-01  2.140231651437E-01  3.620194535516E-02
C43  4.565600312632E-01  2.859768348563E-01 -4.637980546448E-01
C44 -4.565600312632E-01 -2.140231651437E-01 -3.620194535516E-02
H45 -4.205802176300E-01 -1.234959190251E-01  4.312932590528E-01
H46  4.205802176300E-01  3.765040809749E-01  6.870674094722E-02
H47  4.205802176300E-01  1.234959190251E-01 -4.312932590528E-01
H48 -4.205802176300E-01 -3.765040809749E-01 -6.870674094722E-02


#===END

data_OPT_STEP_6

_symmetry_space_group_name_H-M 'P 1'
_cell_length_a      9.55245066
_cell_length_b      6.26104475
_cell_length_c      8.37066668
_cell_angle_alpha   90.000000
_cell_angle_beta  101.501818
_cell_angle_gamma   90.000000

loop_
_atom_site_label
_atom_site_fract_x
_atom_site_fract_y
_atom_site_fract_z
C1 -3.619539135200E-01 -4.233318890479E-01 -4.246996180572E-01
C2  3.619539135200E-01  7.666811095214E-02 -7.530038194277E-02
C3  3.619539135200E-01  4.233318890479E-01  4.246996180572E-01
C4 -3.619539135200E-01 -7.666811095214E-02  7.530038194277E-02
C5 -2.233597491048E-01 -3.498079615389E-01 -3.429118418315E-01
C6  2.233597491048E-01  1.501920384611E-01 -1.570881581685E-01
C7  2.233597491048E-01  3.498079615389E-01  3.429118418315E-01
C8 -2.233597491048E-01 -1.501920384611E-01  1.570881581685E-01
H9 -1.914437593337E-01 -1.878808864591E-01 -3.683674425859E-01
H10  1.914437593337E-01  3.121191135409E-01 -1.316325574141E-01
H11  1.914437593337E-01  1.878808864591E-01  3.683674425859E-01
H12 -1.914437593337E-01 -3.121191135409E-01  1.316325574141E-01
C13 -1.377345006269E-01 -4.751657312175E-01 -2.280684282111E-01
C14  1.377345006269E-01  2.483426878253E-02 -2.719315717889E-01
C15  1.377345006269E-01  4.751657312175E-01  2.280684282111E-01
C16 -1.377345006269E-01 -2.483426878253E-02  2.719315717889E-01
H17 -3.362420372409E-02 -4.174280426500E-01 -1.665815645462E-01
H18  3.362420372409E-02  8.257195734999E-02 -3.334184354538E-01
H19  3.362420372409E-02  4.174280426500E-01  1.665815645462E-01
H20 -3.362420372409E-02 -8.257195734999E-02  3.334184354538E-01
C21 -1.854640042484E-01  3.189254329239E-01 -1.867137657073E-01
C22  1.854640042484E-01 -1.810745670761E-01 -3.132862342927E-01
C23  1.854640042484E-01 -3.189254329239E-01  1.867137657073E-01
C24 -1.854640042484E-01  1.810745670761E-01  3.132862342927E-01
H25 -1.169153262929E-01  2.228340704988E-01 -9.421408957443E-02
H26  1.169153262929E-01 -2.771659295012E-01 -4.057859104256E-01
H27  1.169153262929E-01 -2.228340704988E-01  9.421408957443E-02
H28 -1.169153262929E-01  2.771659295012E-01  4.057859104256E-01
C29 -3.182597652507E-01  2.443144667235E-01 -2.608617855707E-01
C30  3.182597652507E-01 -2.556855332765E-01 -2.391382144293E-01
C31  3.182597652507E-01 -2.443144667235E-01  2.608617855707E-01
C32 -3.182597652507E-01  2.556855332765E-01  2.391382144293E-01
H33 -3.574939422663E-01  8.923004584078E-02 -2.264853280390E-01
H34  3.574939422663E-01 -4.107699541592E-01 -2.735146719610E-01
H35  3.574939422663E-01 -8.923004584078E-02  2.264853280390E-01
H36 -3.574939422663E-01  4.107699541592E-01  2.735146719610E-01
C37 -4.115370523568E-01  3.708438451970E-01 -3.808496020916E-01
C38  4.115370523568E-01 -1.291561548030E-01 -1.191503979084E-01
C39  4.115370523568E-01 -3.708438451970E-01  3.808496020916E-01
C40 -4.115370523568E-01  1.291561548030E-01  1.191503979084E-01
C41 -4.514529644779E-01 -2.989197669136E-01  4.566737908886E-01
C42  4.514529644779E-01  2.010802330864E-01  4.332620911141E-02
C43  4.514529644779E-01  2.989197669136E-01 -4.566737908886E-01
C44 -4.514529644779E-01 -2.010802330864E-01 -4.332620911141E-02
H45 -4.133941253047E-01 -1.434535383218E-01  4.226637433457E-01
H46  4.133941253047E-01  3.565464616782E-01  7.733625665428E-02
H47  4.133941253047E-01  1.434535383218E-01 -4.226637433457E-01
H48 -4.133941253047E-01 -3.565464616782E-01 -7.733625665428E-02


#===END

data_OPT_STEP_7

_symmetry_space_group_name_H-M 'P 1'
_cell_length_a      9.52256435
_cell_length_b      6.25054527
_cell_length_c      8.34870530
_cell_angle_alpha   90.000000
_cell_angle_beta  101.178404
_cell_angle_gamma   90.000000

loop_
_atom_site_label
_atom_site_fract_x
_atom_site_fract_y
_atom_site_fract_z
C1 -3.626807120871E-01 -4.216244208709E-01 -4.233602988303E-01
C2  3.626807120871E-01  7.837557912905E-02 -7.663970116966E-02
C3  3.626807120871E-01  4.216244208709E-01  4.233602988303E-01
C4 -3.626807120871E-01 -7.837557912905E-02  7.663970116966E-02
C5 -2.240547166441E-01 -3.476749955070E-01 -3.416717951643E-01
C6  2.240547166441E-01  1.523250044930E-01 -1.583282048357E-01
C7  2.240547166441E-01  3.476749955070E-01  3.416717951643E-01
C8 -2.240547166441E-01 -1.523250044930E-01  1.583282048357E-01
H9 -1.919697133239E-01 -1.852409574330E-01 -3.672384908592E-01
H10  1.919697133239E-01  3.147590425670E-01 -1.327615091408E-01
H11  1.919697133239E-01  1.852409574330E-01  3.672384908592E-01
H12 -1.919697133239E-01 -3.147590425670E-01  1.327615091408E-01
C13 -1.378940837987E-01 -4.740131109844E-01 -2.278163396201E-01
C14  1.378940837987E-01  2.598688901561E-02 -2.721836603799E-01
C15  1.378940837987E-01  4.740131109844E-01  2.278163396201E-01
C16 -1.378940837987E-01 -2.598688901561E-02  2.721836603799E-01
H17 -3.361230122519E-02 -4.157250204977E-01 -1.662945762865E-01
H18  3.361230122519E-02  8.427497950229E-02 -3.337054237135E-01
H19  3.361230122519E-02  4.157250204977E-01  1.662945762865E-01
H20 -3.361230122519E-02 -8.427497950229E-02  3.337054237135E-01
C21 -1.852785333696E-01  3.188663892098E-01 -1.871464315218E-01
C22  1.852785333696E-01 -1.811336107902E-01 -3.128535684782E-01
C23  1.852785333696E-01 -3.188663892098E-01  1.871464315218E-01
C24 -1.852785333696E-01  1.811336107902E-01  3.128535684782E-01
H25 -1.163254826435E-01  2.220852148100E-01 -9.507794886078E-02
H26  1.163254826435E-01 -2.779147851900E-01 -4.049220511392E-01
H27  1.163254826435E-01 -2.220852148100E-01  9.507794886078E-02
H28 -1.163254826435E-01  2.779147851900E-01  4.049220511392E-01
C29 -3.171918089357E-01  2.422572972815E-01 -2.629589918688E-01
C30  3.171918089357E-01 -2.577427027185E-01 -2.370410081312E-01
C31  3.171918089357E-01 -2.422572972815E-01  2.629589918688E-01
C32 -3.171918089357E-01  2.577427027185E-01  2.370410081312E-01
H33 -3.545364943556E-01  8.367869176268E-02 -2.319503687181E-01
H34  3.545364943556E-01 -4.163213082373E-01 -2.680496312819E-01
H35  3.545364943556E-01 -8.367869176268E-02  2.319503687181E-01
H36 -3.545364943556E-01  4.163213082373E-01  2.680496312819E-01
C37 -4.110463903541E-01  3.699116789289E-01 -3.817829465895E-01
C38  4.110463903541E-01 -1.300883210711E-01 -1.182170534105E-01
C39  4.110463903541E-01 -3.699116789289E-01  3.817829465895E-01
C40 -4.110463903541E-01  1.300883210711E-01  1.182170534105E-01
C41 -4.532557998455E-01 -2.952702093340E-01  4.600802201167E-01
C42  4.532557998455E-01  2.047297906660E-01  3.991977988332E-02
C43  4.532557998455E-01  2.952702093340E-01 -4.600802201167E-01
C44 -4.532557998455E-01 -2.047297906660E-01 -3.991977988332E-02
H45 -4.168114564133E-01 -1.365086459664E-01  4.290715362376E-01
H46  4.168114564133E-01  3.634913540336E-01  7.092846376235E-02
H47  4.168114564133E-01  1.365086459664E-01 -4.290715362376E-01
H48 -4.168114564133E-01 -3.634913540336E-01 -7.092846376235E-02


#===END

data_OPT_STEP_8

_symmetry_space_group_name_H-M 'P 1'
_cell_length_a      9.40731157
_cell_length_b      6.22590194
_cell_length_c      8.22776765
_cell_angle_alpha   90.000000
_cell_angle_beta   99.509639
_cell_angle_gamma   90.000000

loop_
_atom_site_label
_atom_site_fract_x
_atom_site_fract_y
_atom_site_fract_z
C1 -3.639685621363E-01 -4.178356420992E-01 -4.214534047882E-01
C2  3.639685621363E-01  8.216435790081E-02 -7.854659521175E-02
C3  3.639685621363E-01  4.178356420992E-01  4.214534047882E-01
C4 -3.639685621363E-01 -8.216435790081E-02  7.854659521175E-02
C5 -2.264542729741E-01 -3.406226149270E-01 -3.384436421444E-01
C6  2.264542729741E-01  1.593773850730E-01 -1.615563578556E-01
C7  2.264542729741E-01  3.406226149270E-01  3.384436421444E-01
C8 -2.264542729741E-01 -1.593773850730E-01  1.615563578556E-01
H9 -1.929659686311E-01 -1.749139761032E-01 -3.651106917257E-01
H10  1.929659686311E-01  3.250860238968E-01 -1.348893082743E-01
H11  1.929659686311E-01  1.749139761032E-01  3.651106917257E-01
H12 -1.929659686311E-01 -3.250860238968E-01  1.348893082743E-01
C13 -1.392709405727E-01 -4.690913571490E-01 -2.265569318865E-01
C14  1.392709405727E-01  3.090864285103E-02 -2.734430681135E-01
C15  1.392709405727E-01  4.690913571490E-01  2.265569318865E-01
C16 -1.392709405727E-01 -3.090864285103E-02  2.734430681135E-01
H17 -3.317364976072E-02 -4.075517694161E-01 -1.643452097994E-01
H18  3.317364976072E-02  9.244823058394E-02 -3.356547902006E-01
H19  3.317364976072E-02  4.075517694161E-01  1.643452097994E-01
H20 -3.317364976072E-02 -9.244823058394E-02  3.356547902006E-01
C21 -1.857675107947E-01  3.197602313002E-01 -1.878668176283E-01
C22  1.857675107947E-01 -1.802397686998E-01 -3.121331823717E-01
C23  1.857675107947E-01 -3.197602313002E-01  1.878668176283E-01
C24 -1.857675107947E-01  1.802397686998E-01  3.121331823717E-01
H25 -1.133150976868E-01  2.183989516466E-01 -9.805870059584E-02
H26  1.133150976868E-01 -2.816010483534E-01 -4.019412994042E-01
H27  1.133150976868E-01 -2.183989516466E-01  9.805870059584E-02
H28 -1.133150976868E-01  2.816010483534E-01  4.019412994042E-01
C29 -3.184023722151E-01  2.422941921820E-01 -2.622839957615E-01
C30  3.184023722151E-01 -2.577058078180E-01 -2.377160042385E-01
C31  3.184023722151E-01 -2.422941921820E-01  2.622839957615E-01
C32 -3.184023722151E-01  2.577058078180E-01  2.377160042385E-01
H33 -3.532719691387E-01  7.696592461068E-02 -2.342343353715E-01
H34  3.532719691387E-01 -4.230340753893E-01 -2.657656646285E-01
H35  3.532719691387E-01 -7.696592461068E-02  2.342343353715E-01
H36 -3.532719691387E-01  4.230340753893E-01  2.657656646285E-01
C37 -4.108659442486E-01  3.687777879981E-01 -3.825234419764E-01
C38  4.108659442486E-01 -1.312222120019E-01 -1.174765580236E-01
C39  4.108659442486E-01 -3.687777879981E-01  3.825234419764E-01
C40 -4.108659442486E-01  1.312222120019E-01  1.174765580236E-01
C41 -4.536276991525E-01 -2.919282199585E-01  4.610122699947E-01
C42  4.536276991525E-01  2.080717800415E-01  3.898773000534E-02
C43  4.536276991525E-01  2.919282199585E-01 -4.610122699947E-01
C44 -4.536276991525E-01 -2.080717800415E-01 -3.898773000534E-02
H45 -4.177662646985E-01 -1.280313937259E-01  4.307802427347E-01
H46  4.177662646985E-01  3.719686062741E-01  6.921975726525E-02
H47  4.177662646985E-01  1.280313937259E-01 -4.307802427347E-01
H48 -4.177662646985E-01 -3.719686062741E-01 -6.921975726525E-02


#===END

data_OPT_STEP_9

_symmetry_space_group_name_H-M 'P 1'
_cell_length_a      9.50891626
_cell_length_b      6.14316950
_cell_length_c      8.35083169
_cell_angle_alpha   90.000000
_cell_angle_beta  100.771084
_cell_angle_gamma   90.000000

loop_
_atom_site_label
_atom_site_fract_x
_atom_site_fract_y
_atom_site_fract_z
C1 -3.639709221040E-01 -4.175939977223E-01 -4.210375777216E-01
C2  3.639709221040E-01  8.240600227769E-02 -7.896242227843E-02
C3  3.639709221040E-01  4.175939977223E-01  4.210375777216E-01
C4 -3.639709221040E-01 -8.240600227769E-02  7.896242227843E-02
C5 -2.243814761571E-01 -3.442229606230E-01 -3.419402178699E-01
C6  2.243814761571E-01  1.557770393770E-01 -1.580597821301E-01
C7  2.243814761571E-01  3.442229606230E-01  3.419402178699E-01
C8 -2.243814761571E-01 -1.557770393770E-01  1.580597821301E-01
H9 -1.897653534060E-01 -1.782025793675E-01 -3.711091582546E-01
H10  1.897653534060E-01  3.217974206325E-01 -1.288908417454E-01
H11  1.897653534060E-01  1.782025793675E-01  3.711091582546E-01
H12 -1.897653534060E-01 -3.217974206325E-01  1.288908417454E-01
C13 -1.389304791029E-01 -4.709840868765E-01 -2.264863565010E-01
C14  1.389304791029E-01  2.901591312348E-02 -2.735136434990E-01
C15  1.389304791029E-01  4.709840868765E-01  2.264863565010E-01
C16 -1.389304791029E-01 -2.901591312348E-02  2.735136434990E-01
H17 -3.276923510924E-02 -4.080722698654E-01 -1.625828979450E-01
H18  3.276923510924E-02  9.192773013462E-02 -3.374171020550E-01
H19  3.276923510924E-02  4.080722698654E-01  1.625828979450E-01
H20 -3.276923510924E-02 -9.192773013462E-02  3.374171020550E-01
C21 -1.845972064689E-01  3.144129459366E-01 -1.899182614184E-01
C22  1.845972064689E-01 -1.855870540634E-01 -3.100817385816E-01
C23  1.845972064689E-01 -3.144129459366E-01  1.899182614184E-01
C24 -1.845972064689E-01  1.855870540634E-01  3.100817385816E-01
H25 -1.134497957986E-01  2.127548229201E-01 -9.752837923226E-02
H26  1.134497957986E-01 -2.872451770799E-01 -4.024716207677E-01
H27  1.134497957986E-01 -2.127548229201E-01  9.752837923226E-02
H28 -1.134497957986E-01  2.872451770799E-01  4.024716207677E-01
C29 -3.154571425564E-01  2.340877707297E-01 -2.681364834204E-01
C30  3.154571425564E-01 -2.659122292703E-01 -2.318635165796E-01
C31  3.154571425564E-01 -2.340877707297E-01  2.681364834204E-01
C32 -3.154571425564E-01  2.659122292703E-01  2.318635165796E-01
H33 -3.535552799203E-01  7.206245128703E-02 -2.347121489593E-01
H34  3.535552799203E-01 -4.279375487130E-01 -2.652878510407E-01
H35  3.535552799203E-01 -7.206245128703E-02  2.347121489593E-01
H36 -3.535552799203E-01  4.279375487130E-01  2.652878510407E-01
C37 -4.095558807487E-01  3.649133727712E-01 -3.850958929404E-01
C38  4.095558807487E-01 -1.350866272288E-01 -1.149041070596E-01
C39  4.095558807487E-01 -3.649133727712E-01  3.850958929404E-01
C40 -4.095558807487E-01  1.350866272288E-01  1.149041070596E-01
C41 -4.553392013158E-01 -2.873129535933E-01  4.646710341372E-01
C42  4.553392013158E-01  2.126870464067E-01  3.532896586285E-02
C43  4.553392013158E-01  2.873129535933E-01 -4.646710341372E-01
C44 -4.553392013158E-01 -2.126870464067E-01 -3.532896586285E-02
H45 -4.197540536321E-01 -1.208990184203E-01  4.353296780435E-01
H46  4.197540536321E-01  3.791009815797E-01  6.467032195654E-02
H47  4.197540536321E-01  1.208990184203E-01 -4.353296780435E-01
H48 -4.197540536321E-01 -3.791009815797E-01 -6.467032195654E-02


#===END

data_OPT_STEP_10

_symmetry_space_group_name_H-M 'P 1'
_cell_length_a      9.41714988
_cell_length_b      6.21576503
_cell_length_c      8.24868343
_cell_angle_alpha   90.000000
_cell_angle_beta   99.680062
_cell_angle_gamma   90.000000

loop_
_atom_site_label
_atom_site_fract_x
_atom_site_fract_y
_atom_site_fract_z
C1 -3.641522681175E-01 -4.174533629032E-01 -4.208152709983E-01
C2  3.641522681175E-01  8.254663709683E-02 -7.918472900169E-02
C3  3.641522681175E-01  4.174533629032E-01  4.208152709983E-01
C4 -3.641522681175E-01 -8.254663709683E-02  7.918472900169E-02
C5 -2.255735412374E-01 -3.421943834902E-01 -3.397047502400E-01
C6  2.255735412374E-01  1.578056165098E-01 -1.602952497600E-01
C7  2.255735412374E-01  3.421943834902E-01  3.397047502400E-01
C8 -2.255735412374E-01 -1.578056165098E-01  1.602952497600E-01
H9 -1.916203170964E-01 -1.766516504514E-01 -3.674037048394E-01
H10  1.916203170964E-01  3.233483495486E-01 -1.325962951606E-01
H11  1.916203170964E-01  1.766516504514E-01  3.674037048394E-01
H12 -1.916203170964E-01 -3.233483495486E-01  1.325962951606E-01
C13 -1.391780078206E-01 -4.695465736797E-01 -2.263258756457E-01
C14  1.391780078206E-01  3.045342632026E-02 -2.736741243543E-01
C15  1.391780078206E-01  4.695465736797E-01  2.263258756457E-01
C16 -1.391780078206E-01 -3.045342632026E-02  2.736741243543E-01
H17 -3.281343424319E-02 -4.079027838057E-01 -1.637165869345E-01
H18  3.281343424319E-02  9.209721619430E-02 -3.362834130655E-01
H19  3.281343424319E-02  4.079027838057E-01  1.637165869345E-01
H20 -3.281343424319E-02 -9.209721619430E-02  3.362834130655E-01
C21 -1.854596112566E-01  3.183806876385E-01 -1.885498281157E-01
C22  1.854596112566E-01 -1.816193123615E-01 -3.114501718843E-01
C23  1.854596112566E-01 -3.183806876385E-01  1.885498281157E-01
C24 -1.854596112566E-01  1.816193123615E-01  3.114501718843E-01
H25 -1.137431433457E-01  2.172235307971E-01 -9.754930577445E-02
H26  1.137431433457E-01 -2.827764692029E-01 -4.024506942256E-01
H27  1.137431433457E-01 -2.172235307971E-01  9.754930577445E-02
H28 -1.137431433457E-01  2.827764692029E-01  4.024506942256E-01
C29 -3.172527929482E-01  2.396521407074E-01 -2.648327440395E-01
C30  3.172527929482E-01 -2.603478592926E-01 -2.351672559605E-01
C31  3.172527929482E-01 -2.396521407074E-01  2.648327440395E-01
C32 -3.172527929482E-01  2.603478592926E-01  2.351672559605E-01
H33 -3.538248507579E-01  7.657593351099E-02 -2.341295811681E-01
H34  3.538248507579E-01 -4.234240664890E-01 -2.658704188319E-01
H35  3.538248507579E-01 -7.657593351099E-02  2.341295811681E-01
H36 -3.538248507579E-01  4.234240664890E-01  2.658704188319E-01
C37 -4.105894293620E-01  3.679603111506E-01 -3.832079391687E-01
C38  4.105894293620E-01 -1.320396888494E-01 -1.167920608313E-01
C39  4.105894293620E-01 -3.679603111506E-01  3.832079391687E-01
C40 -4.105894293620E-01  1.320396888494E-01  1.167920608313E-01
C41 -4.544172756197E-01 -2.902552177076E-01  4.628805871140E-01
C42  4.544172756197E-01  2.097447822924E-01  3.711941288602E-02
C43  4.544172756197E-01  2.902552177076E-01 -4.628805871140E-01
C44 -4.544172756197E-01 -2.097447822924E-01 -3.711941288602E-02
H45 -4.185105847227E-01 -1.258638751346E-01  4.328555427624E-01
H46  4.185105847227E-01  3.741361248654E-01  6.714445723760E-02
H47  4.185105847227E-01  1.258638751346E-01 -4.328555427624E-01
H48 -4.185105847227E-01 -3.741361248654E-01 -6.714445723760E-02


#===END

data_OPT_STEP_11

_symmetry_space_group_name_H-M 'P 1'
_cell_length_a      9.41406489
_cell_length_b      6.19388335
_cell_length_c      8.28099899
_cell_angle_alpha   90.000000
_cell_angle_beta   99.895599
_cell_angle_gamma   90.000000

loop_
_atom_site_label
_atom_site_fract_x
_atom_site_fract_y
_atom_site_fract_z
C1 -3.634112963566E-01 -4.183329610167E-01 -4.217214880041E-01
C2  3.634112963566E-01  8.166703898330E-02 -7.827851199590E-02
C3  3.634112963566E-01  4.183329610167E-01  4.217214880041E-01
C4 -3.634112963566E-01 -8.166703898330E-02  7.827851199590E-02
C5 -2.251259178628E-01 -3.421291882984E-01 -3.393952369318E-01
C6  2.251259178628E-01  1.578708117016E-01 -1.606047630682E-01
C7  2.251259178628E-01  3.421291882984E-01  3.393952369318E-01
C8 -2.251259178628E-01 -1.578708117016E-01  1.606047630682E-01
H9 -1.904946727729E-01 -1.773747987020E-01 -3.684994821450E-01
H10  1.904946727729E-01  3.226252012980E-01 -1.315005178550E-01
H11  1.904946727729E-01  1.773747987020E-01  3.684994821450E-01
H12 -1.904946727729E-01 -3.226252012980E-01  1.315005178550E-01
C13 -1.387897103070E-01 -4.699924602745E-01 -2.259976711815E-01
C14  1.387897103070E-01  3.000753972555E-02 -2.740023288185E-01
C15  1.387897103070E-01  4.699924602745E-01  2.259976711815E-01
C16 -1.387897103070E-01 -3.000753972555E-02  2.740023288185E-01
H17 -3.233548062607E-02 -4.085561750540E-01 -1.633957748413E-01
H18  3.233548062607E-02  9.144382494604E-02 -3.366042251587E-01
H19  3.233548062607E-02  4.085561750540E-01  1.633957748413E-01
H20 -3.233548062607E-02 -9.144382494604E-02  3.366042251587E-01
C21 -1.853145812328E-01  3.171746701434E-01 -1.885272682672E-01
C22  1.853145812328E-01 -1.828253298566E-01 -3.114727317328E-01
C23  1.853145812328E-01 -3.171746701434E-01  1.885272682672E-01
C24 -1.853145812328E-01  1.828253298566E-01  3.114727317328E-01
H25 -1.149313360238E-01  2.163581049856E-01 -9.631467897800E-02
H26  1.149313360238E-01 -2.836418950144E-01 -4.036853210220E-01
H27  1.149313360238E-01 -2.163581049856E-01  9.631467897800E-02
H28 -1.149313360238E-01  2.836418950144E-01  4.036853210220E-01
C29 -3.166422886572E-01  2.377129529660E-01 -2.661649827645E-01
C30  3.166422886572E-01 -2.622870470340E-01 -2.338350172355E-01
C31  3.166422886572E-01 -2.377129529660E-01  2.661649827645E-01
C32 -3.166422886572E-01  2.622870470340E-01  2.338350172355E-01
H33 -3.531779504478E-01  7.396304130027E-02 -2.365761470072E-01
H34  3.531779504478E-01 -4.260369586997E-01 -2.634238529928E-01
H35  3.531779504478E-01 -7.396304130027E-02  2.365761470072E-01
H36 -3.531779504478E-01  4.260369586997E-01  2.634238529928E-01
C37 -4.099870911552E-01  3.664018894548E-01 -3.844900269499E-01
C38  4.099870911552E-01 -1.335981105452E-01 -1.155099730501E-01
C39  4.099870911552E-01 -3.664018894548E-01  3.844900269499E-01
C40 -4.099870911552E-01  1.335981105452E-01  1.155099730501E-01
C41 -4.543982326716E-01 -2.895956903813E-01  4.633601225161E-01
C42  4.543982326716E-01  2.104043096187E-01  3.663987748392E-02
C43  4.543982326716E-01  2.895956903813E-01 -4.633601225161E-01
C44 -4.543982326716E-01 -2.104043096187E-01 -3.663987748392E-02
H45 -4.179407035498E-01 -1.256306835434E-01  4.329641216910E-01
H46  4.179407035498E-01  3.743693164566E-01  6.703587830902E-02
H47  4.179407035498E-01  1.256306835434E-01 -4.329641216910E-01
H48 -4.179407035498E-01 -3.743693164566E-01 -6.703587830902E-02


#===END

data_OPT_STEP_12

_symmetry_space_group_name_H-M 'P 1'
_cell_length_a      9.40022003
_cell_length_b      6.16682466
_cell_length_c      8.31380885
_cell_angle_alpha   90.000000
_cell_angle_beta  100.022991
_cell_angle_gamma   90.000000

loop_
_atom_site_label
_atom_site_fract_x
_atom_site_fract_y
_atom_site_fract_z
C1 -3.633536643274E-01 -4.178399858083E-01 -4.212902623950E-01
C2  3.633536643274E-01  8.216001419175E-02 -7.870973760499E-02
C3  3.633536643274E-01  4.178399858083E-01  4.212902623950E-01
C4 -3.633536643274E-01 -8.216001419175E-02  7.870973760499E-02
C5 -2.244591179673E-01 -3.421003680297E-01 -3.394699503692E-01
C6  2.244591179673E-01  1.578996319703E-01 -1.605300496308E-01
C7  2.244591179673E-01  3.421003680297E-01  3.394699503692E-01
C8 -2.244591179673E-01 -1.578996319703E-01  1.605300496308E-01
H9 -1.891219669481E-01 -1.777717891230E-01 -3.697015148878E-01
H10  1.891219669481E-01  3.222282108770E-01 -1.302984851122E-01
H11  1.891219669481E-01  1.777717891230E-01  3.697015148878E-01
H12 -1.891219669481E-01 -3.222282108770E-01  1.302984851122E-01
C13 -1.384083196100E-01 -4.702378802735E-01 -2.257387951190E-01
C14  1.384083196100E-01  2.976211972648E-02 -2.742612048810E-01
C15  1.384083196100E-01  4.702378802735E-01  2.257387951190E-01
C16 -1.384083196100E-01 -2.976211972648E-02  2.742612048810E-01
H17 -3.185960036617E-02 -4.088917975272E-01 -1.631873561323E-01
H18  3.185960036617E-02  9.110820247281E-02 -3.368126438677E-01
H19  3.185960036617E-02  4.088917975272E-01  1.631873561323E-01
H20 -3.185960036617E-02 -9.110820247281E-02  3.368126438677E-01
C21 -1.856410520823E-01  3.167309812059E-01 -1.876956589903E-01
C22  1.856410520823E-01 -1.832690187941E-01 -3.123043410097E-01
C23  1.856410520823E-01 -3.167309812059E-01  1.876956589903E-01
C24 -1.856410520823E-01  1.832690187941E-01  3.123043410097E-01
H25 -1.160558340840E-01  2.156830898807E-01 -9.501307692956E-02
H26  1.160558340840E-01 -2.843169101193E-01 -4.049869230704E-01
H27  1.160558340840E-01 -2.156830898807E-01  9.501307692956E-02
H28 -1.160558340840E-01  2.843169101193E-01  4.049869230704E-01
C29 -3.178399773983E-01  2.385066442928E-01 -2.642129229539E-01
C30  3.178399773983E-01 -2.614933557072E-01 -2.357870770461E-01
C31  3.178399773983E-01 -2.385066442928E-01  2.642129229539E-01
C32 -3.178399773983E-01  2.614933557072E-01  2.357870770461E-01
H33 -3.547703655746E-01  7.452462467117E-02 -2.349039827753E-01
H34  3.547703655746E-01 -4.254753753288E-01 -2.650960172247E-01
H35  3.547703655746E-01 -7.452462467117E-02  2.349039827753E-01
H36 -3.547703655746E-01  4.254753753288E-01  2.650960172247E-01
C37 -4.106314944209E-01  3.667762487785E-01 -3.835207120051E-01
C38  4.106314944209E-01 -1.332237512215E-01 -1.164792879949E-01
C39  4.106314944209E-01 -3.667762487785E-01  3.835207120051E-01
C40 -4.106314944209E-01  1.332237512215E-01  1.164792879949E-01
C41 -4.538842988443E-01 -2.893484973194E-01  4.631174394776E-01
C42  4.538842988443E-01  2.106515026806E-01  3.688256052239E-02
C43  4.538842988443E-01  2.893484973194E-01 -4.631174394776E-01
C44 -4.538842988443E-01 -2.106515026806E-01 -3.688256052239E-02
H45 -4.173563531772E-01 -1.247399609461E-01  4.333691924605E-01
H46  4.173563531772E-01  3.752600390539E-01  6.663080753949E-02
H47  4.173563531772E-01  1.247399609461E-01 -4.333691924605E-01
H48 -4.173563531772E-01 -3.752600390539E-01 -6.663080753949E-02


#===END

data_OPT_STEP_13

_symmetry_space_group_name_H-M 'P 1'
_cell_length_a      9.38522129
_cell_length_b      6.13441045
_cell_length_c      8.35259676
_cell_angle_alpha   90.000000
_cell_angle_beta  100.127819
_cell_angle_gamma   90.000000

loop_
_atom_site_label
_atom_site_fract_x
_atom_site_fract_y
_atom_site_fract_z
C1 -3.632069582733E-01 -4.172768016151E-01 -4.210580825602E-01
C2  3.632069582733E-01  8.272319838492E-02 -7.894191743984E-02
C3  3.632069582733E-01  4.172768016151E-01  4.210580825602E-01
C4 -3.632069582733E-01 -8.272319838492E-02  7.894191743984E-02
C5 -2.237135948770E-01 -3.417895761106E-01 -3.398212866350E-01
C6  2.237135948770E-01  1.582104238894E-01 -1.601787133650E-01
C7  2.237135948770E-01  3.417895761106E-01  3.398212866350E-01
C8 -2.237135948770E-01 -1.582104238894E-01  1.601787133650E-01
H9 -1.878752728957E-01 -1.769631752894E-01 -3.704038596929E-01
H10  1.878752728957E-01  3.230368247106E-01 -1.295961403071E-01
H11  1.878752728957E-01  1.769631752894E-01  3.704038596929E-01
H12 -1.878752728957E-01 -3.230368247106E-01  1.295961403071E-01
C13 -1.380389141926E-01 -4.700692920378E-01 -2.256021443143E-01
C14  1.380389141926E-01  2.993070796222E-02 -2.743978556857E-01
C15  1.380389141926E-01  4.700692920378E-01  2.256021443143E-01
C16 -1.380389141926E-01 -2.993070796222E-02  2.743978556857E-01
H17 -3.139349351322E-02 -4.084275456774E-01 -1.629844850008E-01
H18  3.139349351322E-02  9.157245432260E-02 -3.370155149992E-01
H19  3.139349351322E-02  4.084275456774E-01  1.629844850008E-01
H20 -3.139349351322E-02 -9.157245432260E-02  3.370155149992E-01
C21 -1.859677228861E-01  3.165537670844E-01 -1.868652485315E-01
C22  1.859677228861E-01 -1.834462329156E-01 -3.131347514685E-01
C23  1.859677228861E-01 -3.165537670844E-01  1.868652485315E-01
C24 -1.859677228861E-01  1.834462329156E-01  3.131347514685E-01
H25 -1.165871326868E-01  2.148245372887E-01 -9.423676173127E-02
H26  1.165871326868E-01 -2.851754627113E-01 -4.057632382687E-01
H27  1.165871326868E-01 -2.148245372887E-01  9.423676173127E-02
H28 -1.165871326868E-01  2.851754627113E-01  4.057632382687E-01
C29 -3.179883172615E-01  2.373565669607E-01 -2.642104644550E-01
C30  3.179883172615E-01 -2.626434330393E-01 -2.357895355450E-01
C31  3.179883172615E-01 -2.373565669607E-01  2.642104644550E-01
C32 -3.179883172615E-01  2.626434330393E-01  2.357895355450E-01
H33 -3.547924674034E-01  7.218362201440E-02 -2.356634464033E-01
H34  3.547924674034E-01 -4.278163779856E-01 -2.643365535967E-01
H35  3.547924674034E-01 -7.218362201440E-02  2.356634464033E-01
H36 -3.547924674034E-01  4.278163779856E-01  2.643365535967E-01
C37 -4.109437245716E-01  3.665196078369E-01 -3.831661322575E-01
C38  4.109437245716E-01 -1.334803921632E-01 -1.168338677425E-01
C39  4.109437245716E-01 -3.665196078369E-01  3.831661322575E-01
C40 -4.109437245716E-01  1.334803921632E-01  1.168338677425E-01
C41 -4.530422871025E-01 -2.892714884951E-01  4.622384004929E-01
C42  4.530422871025E-01  2.107285115049E-01  3.776159950712E-02
C43  4.530422871025E-01  2.892714884951E-01 -4.622384004929E-01
C44 -4.530422871025E-01 -2.107285115049E-01 -3.776159950712E-02
H45 -4.159453734042E-01 -1.245544216667E-01  4.320368238691E-01
H46  4.159453734042E-01  3.754455783333E-01  6.796317613089E-02
H47  4.159453734042E-01  1.245544216667E-01 -4.320368238691E-01
H48 -4.159453734042E-01 -3.754455783333E-01 -6.796317613089E-02


#===END

data_OPT_STEP_14

_symmetry_space_group_name_H-M 'P 1'
_cell_length_a      9.36583040
_cell_length_b      6.11052140
_cell_length_c      8.39399036
_cell_angle_alpha   90.000000
_cell_angle_beta  100.205611
_cell_angle_gamma   90.000000

loop_
_atom_site_label
_atom_site_fract_x
_atom_site_fract_y
_atom_site_fract_z
C1 -3.624963512792E-01 -4.177048777856E-01 -4.217832788042E-01
C2  3.624963512792E-01  8.229512221442E-02 -7.821672119582E-02
C3  3.624963512792E-01  4.177048777856E-01  4.217832788042E-01
C4 -3.624963512792E-01 -8.229512221442E-02  7.821672119582E-02
C5 -2.226850844161E-01 -3.419909002586E-01 -3.404862936024E-01
C6  2.226850844161E-01  1.580090997414E-01 -1.595137063976E-01
C7  2.226850844161E-01  3.419909002586E-01  3.404862936024E-01
C8 -2.226850844161E-01 -1.580090997414E-01  1.595137063976E-01
H9 -1.863597941234E-01 -1.765495995321E-01 -3.711727025448E-01
H10  1.863597941234E-01  3.234504004679E-01 -1.288272974552E-01
H11  1.863597941234E-01  1.765495995321E-01  3.711727025448E-01
H12 -1.863597941234E-01 -3.234504004679E-01  1.288272974552E-01
C13 -1.375329138176E-01 -4.701459820236E-01 -2.255960075257E-01
C14  1.375329138176E-01  2.985401797637E-02 -2.744039924743E-01
C15  1.375329138176E-01  4.701459820236E-01  2.255960075257E-01
C16 -1.375329138176E-01 -2.985401797637E-02  2.744039924743E-01
H17 -3.067831213817E-02 -4.083345571798E-01 -1.629703049155E-01
H18  3.067831213817E-02  9.166544282019E-02 -3.370296950845E-01
H19  3.067831213817E-02  4.083345571798E-01  1.629703049155E-01
H20 -3.067831213817E-02 -9.166544282019E-02  3.370296950845E-01
C21 -1.865201304694E-01  3.168471844776E-01 -1.856856492381E-01
C22  1.865201304694E-01 -1.831528155224E-01 -3.143143507619E-01
C23  1.865201304694E-01 -3.168471844776E-01  1.856856492381E-01
C24 -1.865201304694E-01  1.831528155224E-01  3.143143507619E-01
H25 -1.173427016511E-01  2.145595402216E-01 -9.303630708760E-02
H26  1.173427016511E-01 -2.854404597784E-01 -4.069636929124E-01
H27  1.173427016511E-01 -2.145595402216E-01  9.303630708760E-02
H28 -1.173427016511E-01  2.854404597784E-01  4.069636929124E-01
C29 -3.186023474789E-01  2.370552543640E-01 -2.635127432904E-01
C30  3.186023474789E-01 -2.629447456360E-01 -2.364872567096E-01
C31  3.186023474789E-01 -2.370552543640E-01  2.635127432904E-01
C32 -3.186023474789E-01  2.629447456360E-01  2.364872567096E-01
H33 -3.562876903497E-01  7.238191881809E-02 -2.338125468837E-01
H34  3.562876903497E-01 -4.276180811819E-01 -2.661874531163E-01
H35  3.562876903497E-01 -7.238191881809E-02  2.338125468837E-01
H36 -3.562876903497E-01  4.276180811819E-01  2.661874531163E-01
C37 -4.109545130274E-01  3.658141712362E-01 -3.834428654595E-01
C38  4.109545130274E-01 -1.341858287638E-01 -1.165571345405E-01
C39  4.109545130274E-01 -3.658141712362E-01  3.834428654595E-01
C40 -4.109545130274E-01  1.341858287638E-01  1.165571345405E-01
C41 -4.524951243940E-01 -2.887445261950E-01  4.620868821246E-01
C42  4.524951243940E-01  2.112554738050E-01  3.791311787537E-02
C43  4.524951243940E-01  2.887445261950E-01 -4.620868821246E-01
C44 -4.524951243940E-01 -2.112554738050E-01 -3.791311787537E-02
H45 -4.151024657089E-01 -1.235013079800E-01  4.320237884813E-01
H46  4.151024657089E-01  3.764986920200E-01  6.797621151868E-02
H47  4.151024657089E-01  1.235013079800E-01 -4.320237884813E-01
H48 -4.151024657089E-01 -3.764986920200E-01 -6.797621151868E-02


#===END

data_OPT_STEP_15

_symmetry_space_group_name_H-M 'P 1'
_cell_length_a      9.36206458
_cell_length_b      6.07964801
_cell_length_c      8.43473292
_cell_angle_alpha   90.000000
_cell_angle_beta  100.393634
_cell_angle_gamma   90.000000

loop_
_atom_site_label
_atom_site_fract_x
_atom_site_fract_y
_atom_site_fract_z
C1 -3.619107169406E-01 -4.177676158313E-01 -4.223747377382E-01
C2  3.619107169406E-01  8.223238416868E-02 -7.762526226183E-02
C3  3.619107169406E-01  4.177676158313E-01  4.223747377382E-01
C4 -3.619107169406E-01 -8.223238416868E-02  7.762526226183E-02
C5 -2.220008590025E-01 -3.414196886450E-01 -3.408185895465E-01
C6  2.220008590025E-01  1.585803113550E-01 -1.591814104535E-01
C7  2.220008590025E-01  3.414196886450E-01  3.408185895465E-01
C8 -2.220008590025E-01 -1.585803113550E-01  1.591814104535E-01
H9 -1.851240107853E-01 -1.752552312998E-01 -3.717705081519E-01
H10  1.851240107853E-01  3.247447687002E-01 -1.282294918481E-01
H11  1.851240107853E-01  1.752552312998E-01  3.717705081519E-01
H12 -1.851240107853E-01 -3.247447687002E-01  1.282294918481E-01
C13 -1.369614894108E-01 -4.700218893848E-01 -2.256913114557E-01
C14  1.369614894108E-01  2.997811061523E-02 -2.743086885443E-01
C15  1.369614894108E-01  4.700218893848E-01  2.256913114557E-01
C16 -1.369614894108E-01 -2.997811061523E-02  2.743086885443E-01
H17 -3.002701747716E-02 -4.075774302515E-01 -1.626721811562E-01
H18  3.002701747716E-02  9.242256974854E-02 -3.373278188438E-01
H19  3.002701747716E-02  4.075774302515E-01  1.626721811562E-01
H20 -3.002701747716E-02 -9.242256974854E-02  3.373278188438E-01
C21 -1.860049752857E-01  3.156967843270E-01 -1.861694023566E-01
C22  1.860049752857E-01 -1.843032156730E-01 -3.138305976434E-01
C23  1.860049752857E-01 -3.156967843270E-01  1.861694023566E-01
C24 -1.860049752857E-01  1.843032156730E-01  3.138305976434E-01
H25 -1.170202792821E-01  2.131223936904E-01 -9.304245024466E-02
H26  1.170202792821E-01 -2.868776063096E-01 -4.069575497553E-01
H27  1.170202792821E-01 -2.131223936904E-01  9.304245024466E-02
H28 -1.170202792821E-01  2.868776063096E-01  4.069575497553E-01
C29 -3.186753943214E-01  2.360825549395E-01 -2.633199635273E-01
C30  3.186753943214E-01 -2.639174450605E-01 -2.366800364727E-01
C31  3.186753943214E-01 -2.360825549395E-01  2.633199635273E-01
C32 -3.186753943214E-01  2.639174450605E-01  2.366800364727E-01
H33 -3.566280384380E-01  7.080754268579E-02 -2.331917358926E-01
H34  3.566280384380E-01 -4.291924573142E-01 -2.668082641074E-01
H35  3.566280384380E-01 -7.080754268579E-02  2.331917358926E-01
H36 -3.566280384380E-01  4.291924573142E-01  2.668082641074E-01
C37 -4.112694687418E-01  3.658760565374E-01 -3.827673546752E-01
C38  4.112694687418E-01 -1.341239434626E-01 -1.172326453248E-01
C39  4.112694687418E-01 -3.658760565374E-01  3.827673546752E-01
C40 -4.112694687418E-01  1.341239434626E-01  1.172326453248E-01
C41 -4.520039938408E-01 -2.881241380831E-01  4.615450383129E-01
C42  4.520039938408E-01  2.118758619169E-01  3.845496168711E-02
C43  4.520039938408E-01  2.881241380831E-01 -4.615450383129E-01
C44 -4.520039938408E-01 -2.118758619169E-01 -3.845496168711E-02
H45 -4.139956945005E-01 -1.228024677676E-01  4.304672543954E-01
H46  4.139956945005E-01  3.771975322324E-01  6.953274560456E-02
H47  4.139956945005E-01  1.228024677676E-01 -4.304672543954E-01
H48 -4.139956945005E-01 -3.771975322324E-01 -6.953274560456E-02


#===END

data_OPT_STEP_16

_symmetry_space_group_name_H-M 'P 1'
_cell_length_a      9.38294596
_cell_length_b      6.07152473
_cell_length_c      8.48651218
_cell_angle_alpha   90.000000
_cell_angle_beta  100.783011
_cell_angle_gamma   90.000000

loop_
_atom_site_label
_atom_site_fract_x
_atom_site_fract_y
_atom_site_fract_z
C1 -3.620350787468E-01 -4.174749011518E-01 -4.217764334526E-01
C2  3.620350787468E-01  8.252509884824E-02 -7.822356654736E-02
C3  3.620350787468E-01  4.174749011518E-01  4.217764334526E-01
C4 -3.620350787468E-01 -8.252509884824E-02  7.822356654736E-02
C5 -2.218494535409E-01 -3.416463355310E-01 -3.405312565966E-01
C6  2.218494535409E-01  1.583536644690E-01 -1.594687434034E-01
C7  2.218494535409E-01  3.416463355310E-01  3.405312565966E-01
C8 -2.218494535409E-01 -1.583536644690E-01  1.594687434034E-01
H9 -1.847649683115E-01 -1.755870464257E-01 -3.715696328911E-01
H10  1.847649683115E-01  3.244129535743E-01 -1.284303671089E-01
H11  1.847649683115E-01  1.755870464257E-01  3.715696328911E-01
H12 -1.847649683115E-01 -3.244129535743E-01  1.284303671089E-01
C13 -1.366592571077E-01 -4.705981264188E-01 -2.257423473426E-01
C14  1.366592571077E-01  2.940187358124E-02 -2.742576526574E-01
C15  1.366592571077E-01  4.705981264188E-01  2.257423473426E-01
C16 -1.366592571077E-01 -2.940187358124E-02  2.742576526574E-01
H17 -2.963648046562E-02 -4.081244783236E-01 -1.625885199317E-01
H18  2.963648046562E-02  9.187552167645E-02 -3.374114800683E-01
H19  2.963648046562E-02  4.081244783236E-01  1.625885199317E-01
H20 -2.963648046562E-02 -9.187552167645E-02  3.374114800683E-01
C21 -1.860535931976E-01  3.155426814741E-01 -1.860966489757E-01
C22  1.860535931976E-01 -1.844573185259E-01 -3.139033510243E-01
C23  1.860535931976E-01 -3.155426814741E-01  1.860966489757E-01
C24 -1.860535931976E-01  1.844573185259E-01  3.139033510243E-01
H25 -1.173056443640E-01  2.132939107531E-01 -9.250793649139E-02
H26  1.173056443640E-01 -2.867060892469E-01 -4.074920635086E-01
H27  1.173056443640E-01 -2.132939107531E-01  9.250793649139E-02
H28 -1.173056443640E-01  2.867060892469E-01  4.074920635086E-01
C29 -3.188649726780E-01  2.360465577235E-01 -2.632983811537E-01
C30  3.188649726780E-01 -2.639534422765E-01 -2.367016188463E-01
C31  3.188649726780E-01 -2.360465577235E-01  2.632983811537E-01
C32 -3.188649726780E-01  2.639534422765E-01  2.367016188463E-01
H33 -3.569178927062E-01  7.065907274109E-02 -2.332283518950E-01
H34  3.569178927062E-01 -4.293409272589E-01 -2.667716481050E-01
H35  3.569178927062E-01 -7.065907274109E-02  2.332283518950E-01
H36 -3.569178927062E-01  4.293409272589E-01  2.667716481050E-01
C37 -4.109592823787E-01  3.652747084735E-01 -3.834483757792E-01
C38  4.109592823787E-01 -1.347252915265E-01 -1.165516242208E-01
C39  4.109592823787E-01 -3.652747084735E-01  3.834483757792E-01
C40 -4.109592823787E-01  1.347252915265E-01  1.165516242208E-01
C41 -4.522141347186E-01 -2.875120518436E-01  4.623468647484E-01
C42  4.522141347186E-01  2.124879481564E-01  3.765313525156E-02
C43  4.522141347186E-01  2.875120518436E-01 -4.623468647484E-01
C44 -4.522141347186E-01 -2.124879481564E-01 -3.765313525156E-02
H45 -4.141852848367E-01 -1.219489755441E-01  4.314021575104E-01
H46  4.141852848367E-01  3.780510244559E-01  6.859784248958E-02
H47  4.141852848367E-01  1.219489755441E-01 -4.314021575104E-01
H48 -4.141852848367E-01 -3.780510244559E-01 -6.859784248958E-02


#===END

data_OPT_STEP_17

_symmetry_space_group_name_H-M 'P 1'
_cell_length_a      9.37082227
_cell_length_b      6.06894766
_cell_length_c      8.48048799
_cell_angle_alpha   90.000000
_cell_angle_beta  100.706689
_cell_angle_gamma   90.000000

loop_
_atom_site_label
_atom_site_fract_x
_atom_site_fract_y
_atom_site_fract_z
C1 -3.620021396266E-01 -4.174121897239E-01 -4.217270832084E-01
C2  3.620021396266E-01  8.258781027612E-02 -7.827291679159E-02
C3  3.620021396266E-01  4.174121897239E-01  4.217270832084E-01
C4 -3.620021396266E-01 -8.258781027612E-02  7.827291679159E-02
C5 -2.218156698307E-01 -3.414537705847E-01 -3.403349530670E-01
C6  2.218156698307E-01  1.585462294153E-01 -1.596650469330E-01
C7  2.218156698307E-01  3.414537705847E-01  3.403349530670E-01
C8 -2.218156698307E-01 -1.585462294153E-01  1.596650469330E-01
H9 -1.846640263107E-01 -1.754762937712E-01 -3.713732265298E-01
H10  1.846640263107E-01  3.245237062288E-01 -1.286267734702E-01
H11  1.846640263107E-01  1.754762937712E-01  3.713732265298E-01
H12 -1.846640263107E-01 -3.245237062288E-01  1.286267734702E-01
C13 -1.366701627290E-01 -4.703595871556E-01 -2.254717940616E-01
C14  1.366701627290E-01  2.964041284440E-02 -2.745282059384E-01
C15  1.366701627290E-01  4.703595871556E-01  2.254717940616E-01
C16 -1.366701627290E-01 -2.964041284440E-02  2.745282059384E-01
H17 -2.955617919811E-02 -4.079956769534E-01 -1.625482133026E-01
H18  2.955617919811E-02  9.200432304658E-02 -3.374517866974E-01
H19  2.955617919811E-02  4.079956769534E-01  1.625482133026E-01
H20 -2.955617919811E-02 -9.200432304658E-02  3.374517866974E-01
C21 -1.861402782055E-01  3.156528003218E-01 -1.858409196264E-01
C22  1.861402782055E-01 -1.843471996782E-01 -3.141590803736E-01
C23  1.861402782055E-01 -3.156528003218E-01  1.858409196264E-01
C24 -1.861402782055E-01  1.843471996782E-01  3.141590803736E-01
H25 -1.173724905914E-01  2.134328206267E-01 -9.234796089024E-02
H26  1.173724905914E-01 -2.865671793733E-01 -4.076520391098E-01
H27  1.173724905914E-01 -2.134328206267E-01  9.234796089024E-02
H28 -1.173724905914E-01  2.865671793733E-01  4.076520391098E-01
C29 -3.189030249677E-01  2.358956666801E-01 -2.632651072355E-01
C30  3.189030249677E-01 -2.641043333199E-01 -2.367348927645E-01
C31  3.189030249677E-01 -2.358956666801E-01  2.632651072355E-01
C32 -3.189030249677E-01  2.641043333199E-01  2.367348927645E-01
H33 -3.569734996762E-01  7.036258409529E-02 -2.333735477433E-01
H34  3.569734996762E-01 -4.296374159047E-01 -2.666264522567E-01
H35  3.569734996762E-01 -7.036258409529E-02  2.333735477433E-01
H36 -3.569734996762E-01  4.296374159047E-01  2.666264522567E-01
C37 -4.110311553865E-01  3.652772108569E-01 -3.833417227498E-01
C38  4.110311553865E-01 -1.347227891431E-01 -1.166582772502E-01
C39  4.110311553865E-01 -3.652772108569E-01  3.833417227498E-01
C40 -4.110311553865E-01  1.347227891431E-01  1.166582772502E-01
C41 -4.520915964730E-01 -2.874792787674E-01  4.622577100463E-01
C42  4.520915964730E-01  2.125207212326E-01  3.774228995366E-02
C43  4.520915964730E-01  2.874792787674E-01 -4.622577100463E-01
C44 -4.520915964730E-01 -2.125207212326E-01 -3.774228995366E-02
H45 -4.143351038566E-01 -1.213106027617E-01  4.319697247400E-01
H46  4.143351038566E-01  3.786893972383E-01  6.803027525995E-02
H47  4.143351038566E-01  1.213106027617E-01 -4.319697247400E-01
H48 -4.143351038566E-01 -3.786893972383E-01 -6.803027525995E-02


#===END

data_OPT_STEP_18

_symmetry_space_group_name_H-M 'P 1'
_cell_length_a      9.34674486
_cell_length_b      6.07053719
_cell_length_c      8.46940394
_cell_angle_alpha   90.000000
_cell_angle_beta  100.550250
_cell_angle_gamma   90.000000

loop_
_atom_site_label
_atom_site_fract_x
_atom_site_fract_y
_atom_site_fract_z
C1 -3.619277476824E-01 -4.173174472020E-01 -4.216697918467E-01
C2  3.619277476824E-01  8.268255279805E-02 -7.833020815327E-02
C3  3.619277476824E-01  4.173174472020E-01  4.216697918467E-01
C4 -3.619277476824E-01 -8.268255279805E-02  7.833020815327E-02
C5 -2.215920486455E-01 -3.413417720893E-01 -3.402752700494E-01
C6  2.215920486455E-01  1.586582279107E-01 -1.597247299506E-01
C7  2.215920486455E-01  3.413417720893E-01  3.402752700494E-01
C8 -2.215920486455E-01 -1.586582279107E-01  1.597247299506E-01
H9 -1.843283252138E-01 -1.755215126478E-01 -3.712604691096E-01
H10  1.843283252138E-01  3.244784873522E-01 -1.287395308904E-01
H11  1.843283252138E-01  1.755215126478E-01  3.712604691096E-01
H12 -1.843283252138E-01 -3.244784873522E-01  1.287395308904E-01
C13 -1.365622956135E-01 -4.699858470888E-01 -2.251735213133E-01
C14  1.365622956135E-01  3.001415291120E-02 -2.748264786867E-01
C15  1.365622956135E-01  4.699858470888E-01  2.251735213133E-01
C16 -1.365622956135E-01 -3.001415291120E-02  2.748264786867E-01
H17 -2.923770178071E-02 -4.078724900622E-01 -1.626296286591E-01
H18  2.923770178071E-02  9.212750993781E-02 -3.373703713409E-01
H19  2.923770178071E-02  4.078724900622E-01  1.626296286591E-01
H20 -2.923770178070E-02 -9.212750993781E-02  3.373703713409E-01
C21 -1.863247968962E-01  3.162624355928E-01 -1.851915026955E-01
C22  1.863247968962E-01 -1.837375644072E-01 -3.148084973045E-01
C23  1.863247968962E-01 -3.162624355928E-01  1.851915026955E-01
C24 -1.863247968962E-01  1.837375644072E-01  3.148084973045E-01
H25 -1.174767250775E-01  2.141154404353E-01 -9.188055749269E-02
H26  1.174767250775E-01 -2.858845595647E-01 -4.081194425073E-01
H27  1.174767250775E-01 -2.141154404353E-01  9.188055749269E-02
H28 -1.174767250775E-01  2.858845595647E-01  4.081194425073E-01
C29 -3.191519532118E-01  2.363633437930E-01 -2.627023832163E-01
C30  3.191519532118E-01 -2.636366562070E-01 -2.372976167837E-01
C31  3.191519532118E-01 -2.363633437930E-01  2.627023832163E-01
C32 -3.191519532118E-01  2.636366562070E-01  2.372976167837E-01
H33 -3.573013462961E-01  7.083473696603E-02 -2.329414627634E-01
H34  3.573013462961E-01 -4.291652630340E-01 -2.670585372366E-01
H35  3.573013462961E-01 -7.083473696603E-02  2.329414627634E-01
H36 -3.573013462961E-01  4.291652630340E-01  2.670585372366E-01
C37 -4.112350061335E-01  3.656248128603E-01 -3.829309320136E-01
C38  4.112350061335E-01 -1.343751871397E-01 -1.170690679864E-01
C39  4.112350061335E-01 -3.656248128603E-01  3.829309320136E-01
C40 -4.112350061335E-01  1.343751871397E-01  1.170690679864E-01
C41 -4.518994924637E-01 -2.876128838170E-01  4.620795727293E-01
C42  4.518994924637E-01  2.123871161830E-01  3.792042727065E-02
C43  4.518994924637E-01  2.876128838170E-01 -4.620795727293E-01
C44 -4.518994924637E-01 -2.123871161830E-01 -3.792042727065E-02
H45 -4.137039363794E-01 -1.220453695237E-01  4.311633650756E-01
H46  4.137039363794E-01  3.779546304763E-01  6.883663492439E-02
H47  4.137039363794E-01  1.220453695237E-01 -4.311633650756E-01
H48 -4.137039363794E-01 -3.779546304763E-01 -6.883663492439E-02


#===END

data_OPT_STEP_19

_symmetry_space_group_name_H-M 'P 1'
_cell_length_a      9.35650381
_cell_length_b      6.05794729
_cell_length_c      8.48298372
_cell_angle_alpha   90.000000
_cell_angle_beta  100.724626
_cell_angle_gamma   90.000000

loop_
_atom_site_label
_atom_site_fract_x
_atom_site_fract_y
_atom_site_fract_z
C1 -3.616955684306E-01 -4.173749531105E-01 -4.221071517381E-01
C2  3.616955684306E-01  8.262504688945E-02 -7.789284826194E-02
C3  3.616955684306E-01  4.173749531105E-01  4.221071517381E-01
C4 -3.616955684306E-01 -8.262504688945E-02  7.789284826194E-02
C5 -2.213367242768E-01 -3.411212297855E-01 -3.406865212222E-01
C6  2.213367242768E-01  1.588787702145E-01 -1.593134787778E-01
C7  2.213367242768E-01  3.411212297855E-01  3.406865212222E-01
C8 -2.213367242768E-01 -1.588787702145E-01  1.593134787778E-01
H9 -1.840045268370E-01 -1.751356400576E-01 -3.716597090713E-01
H10  1.840045268370E-01  3.248643599424E-01 -1.283402909287E-01
H11  1.840045268370E-01  1.751356400576E-01  3.716597090713E-01
H12 -1.840045268370E-01 -3.248643599424E-01  1.283402909287E-01
C13 -1.362675076511E-01 -4.696875847854E-01 -2.253058209003E-01
C14  1.362675076511E-01  3.031241521456E-02 -2.746941790997E-01
C15  1.362675076511E-01  4.696875847854E-01  2.253058209003E-01
C16 -1.362675076511E-01 -3.031241521456E-02  2.746941790997E-01
H17 -2.895922135173E-02 -4.072646590228E-01 -1.625981404819E-01
H18  2.895922135173E-02  9.273534097718E-02 -3.374018595181E-01
H19  2.895922135173E-02  4.072646590228E-01  1.625981404819E-01
H20 -2.895922135173E-02 -9.273534097718E-02  3.374018595181E-01
C21 -1.857871538099E-01  3.160646893517E-01 -1.853946973625E-01
C22  1.857871538099E-01 -1.839353106483E-01 -3.146053026375E-01
C23  1.857871538099E-01 -3.160646893517E-01  1.853946973625E-01
C24 -1.857871538099E-01  1.839353106483E-01  3.146053026375E-01
H25 -1.166595454785E-01  2.138216892775E-01 -9.216296198720E-02
H26  1.166595454785E-01 -2.861783107225E-01 -4.078370380128E-01
H27  1.166595454785E-01 -2.138216892775E-01  9.216296198720E-02
H28 -1.166595454785E-01  2.861783107225E-01  4.078370380128E-01
C29 -3.187038563331E-01  2.360401311987E-01 -2.627352412098E-01
C30  3.187038563331E-01 -2.639598688013E-01 -2.372647587902E-01
C31  3.187038563331E-01 -2.360401311987E-01  2.627352412098E-01
C32 -3.187038563331E-01  2.639598688013E-01  2.372647587902E-01
H33 -3.568434132423E-01  7.038582218397E-02 -2.327044836713E-01
H34  3.568434132423E-01 -4.296141778160E-01 -2.672955163287E-01
H35  3.568434132423E-01 -7.038582218397E-02  2.327044836713E-01
H36 -3.568434132423E-01  4.296141778160E-01  2.672955163287E-01
C37 -4.110694586915E-01  3.655719423825E-01 -3.828335833451E-01
C38  4.110694586915E-01 -1.344280576175E-01 -1.171664166549E-01
C39  4.110694586915E-01 -3.655719423825E-01  3.828335833451E-01
C40 -4.110694586915E-01  1.344280576175E-01  1.171664166549E-01
C41 -4.518053538971E-01 -2.876933480922E-01  4.615121874460E-01
C42  4.518053538971E-01  2.123066519078E-01  3.848781255405E-02
C43  4.518053538971E-01  2.876933480922E-01 -4.615121874460E-01
C44 -4.518053538971E-01 -2.123066519078E-01 -3.848781255405E-02
H45 -4.137707320392E-01 -1.217347870177E-01  4.306330286238E-01
H46  4.137707320392E-01  3.782652129823E-01  6.936697137617E-02
H47  4.137707320392E-01  1.217347870177E-01 -4.306330286238E-01
H48 -4.137707320392E-01 -3.782652129823E-01 -6.936697137617E-02


#===END

data_OPT_STEP_20

_symmetry_space_group_name_H-M 'P 1'
_cell_length_a      9.33608594
_cell_length_b      6.07095600
_cell_length_c      8.47637485
_cell_angle_alpha   90.000000
_cell_angle_beta  100.650680
_cell_angle_gamma   90.000000

loop_
_atom_site_label
_atom_site_fract_x
_atom_site_fract_y
_atom_site_fract_z
C1 -3.615508324213E-01 -4.172810093768E-01 -4.219484303520E-01
C2  3.615508324213E-01  8.271899062316E-02 -7.805156964803E-02
C3  3.615508324213E-01  4.172810093768E-01  4.219484303520E-01
C4 -3.615508324213E-01 -8.271899062316E-02  7.805156964803E-02
C5 -2.209904482028E-01 -3.410330281734E-01 -3.404945470033E-01
C6  2.209904482028E-01  1.589669718266E-01 -1.595054529967E-01
C7  2.209904482028E-01  3.410330281734E-01  3.404945470033E-01
C8 -2.209904482028E-01 -1.589669718266E-01  1.595054529967E-01
H9 -1.834887397061E-01 -1.752902110169E-01 -3.714526855861E-01
H10  1.834887397061E-01  3.247097889831E-01 -1.285473144139E-01
H11  1.834887397061E-01  1.752902110169E-01  3.714526855861E-01
H12 -1.834887397061E-01 -3.247097889831E-01  1.285473144139E-01
C13 -1.355745697837E-01 -4.698058901020E-01 -2.255286458426E-01
C14  1.355745697837E-01  3.019410989801E-02 -2.744713541574E-01
C15  1.355745697837E-01  4.698058901020E-01  2.255286458426E-01
C16 -1.355745697837E-01 -3.019410989801E-02  2.744713541574E-01
H17 -2.801172162804E-02 -4.075665578088E-01 -1.629699696468E-01
H18  2.801172162804E-02  9.243344219118E-02 -3.370300303532E-01
H19  2.801172162804E-02  4.075665578088E-01  1.629699696468E-01
H20 -2.801172162804E-02 -9.243344219118E-02  3.370300303532E-01
C21 -1.852551256491E-01  3.164304838703E-01 -1.854373519547E-01
C22  1.852551256491E-01 -1.835695161297E-01 -3.145626480453E-01
C23  1.852551256491E-01 -3.164304838703E-01  1.854373519547E-01
C24 -1.852551256491E-01  1.835695161297E-01  3.145626480453E-01
H25 -1.163633287161E-01  2.149003692010E-01 -9.159560008282E-02
H26  1.163633287161E-01 -2.850996307990E-01 -4.084043999172E-01
H27  1.163633287161E-01 -2.149003692010E-01  9.159560008282E-02
H28 -1.163633287161E-01  2.850996307990E-01  4.084043999172E-01
C29 -3.183409725436E-01  2.364862517770E-01 -2.628284563888E-01
C30  3.183409725436E-01 -2.635137482230E-01 -2.371715436112E-01
C31  3.183409725436E-01 -2.364862517770E-01  2.628284563888E-01
C32 -3.183409725436E-01  2.635137482230E-01  2.371715436112E-01
H33 -3.566587576362E-01  7.127608424581E-02 -2.326045500069E-01
H34  3.566587576362E-01 -4.287239157542E-01 -2.673954499931E-01
H35  3.566587576362E-01 -7.127608424581E-02  2.326045500069E-01
H36 -3.566587576362E-01  4.287239157542E-01  2.673954499931E-01
C37 -4.108910489802E-01  3.658461507965E-01 -3.828663513757E-01
C38  4.108910489802E-01 -1.341538492035E-01 -1.171336486243E-01
C39  4.108910489802E-01 -3.658461507965E-01  3.828663513757E-01
C40 -4.108910489802E-01  1.341538492035E-01  1.171336486243E-01
C41 -4.518450236890E-01 -2.878706406739E-01  4.616938411123E-01
C42  4.518450236890E-01  2.121293593261E-01  3.830615888769E-02
C43  4.518450236890E-01  2.878706406739E-01 -4.616938411123E-01
C44 -4.518450236890E-01 -2.121293593261E-01 -3.830615888769E-02
H45 -4.140564861643E-01 -1.216589094337E-01  4.313768566770E-01
H46  4.140564861643E-01  3.783410905663E-01  6.862314332298E-02
H47  4.140564861643E-01  1.216589094337E-01 -4.313768566770E-01
H48 -4.140564861643E-01 -3.783410905663E-01 -6.862314332298E-02


#===END

data_OPT_STEP_21

_symmetry_space_group_name_H-M 'P 1'
_cell_length_a      9.32849803
_cell_length_b      6.06607134
_cell_length_c      8.50098517
_cell_angle_alpha   90.000000
_cell_angle_beta  100.728371
_cell_angle_gamma   90.000000

loop_
_atom_site_label
_atom_site_fract_x
_atom_site_fract_y
_atom_site_fract_z
C1 -3.615787217871E-01 -4.169496013329E-01 -4.215738165438E-01
C2  3.615787217871E-01  8.305039866707E-02 -7.842618345622E-02
C3  3.615787217871E-01  4.169496013329E-01  4.215738165438E-01
C4 -3.615787217871E-01 -8.305039866707E-02  7.842618345622E-02
C5 -2.209757625363E-01 -3.405091800840E-01 -3.399720087106E-01
C6  2.209757625363E-01  1.594908199160E-01 -1.600279912894E-01
C7  2.209757625363E-01  3.405091800840E-01  3.399720087106E-01
C8 -2.209757625363E-01 -1.594908199160E-01  1.600279912894E-01
H9 -1.833603536209E-01 -1.748476847467E-01 -3.710758376170E-01
H10  1.833603536209E-01  3.251523152533E-01 -1.289241623830E-01
H11  1.833603536209E-01  1.748476847467E-01  3.710758376170E-01
H12 -1.833603536209E-01 -3.251523152533E-01  1.289241623830E-01
C13 -1.356793756917E-01 -4.689597650538E-01 -2.248231156274E-01
C14  1.356793756917E-01  3.104023494623E-02 -2.751768843726E-01
C15  1.356793756917E-01  4.689597650538E-01  2.248231156274E-01
C16 -1.356793756917E-01 -3.104023494623E-02  2.751768843726E-01
H17 -2.787771320102E-02 -4.067582690878E-01 -1.624600647416E-01
H18  2.787771320102E-02  9.324173091224E-02 -3.375399352584E-01
H19  2.787771320102E-02  4.067582690878E-01  1.624600647416E-01
H20 -2.787771320102E-02 -9.324173091224E-02  3.375399352584E-01
C21 -1.853637026605E-01  3.170448638912E-01 -1.850492199067E-01
C22  1.853637026605E-01 -1.829551361088E-01 -3.149507800933E-01
C23  1.853637026605E-01 -3.170448638912E-01  1.850492199067E-01
C24 -1.853637026605E-01  1.829551361088E-01  3.149507800933E-01
H25 -1.161676217861E-01  2.152827063898E-01 -9.161277389266E-02
H26  1.161676217861E-01 -2.847172936102E-01 -4.083872261073E-01
H27  1.161676217861E-01 -2.152827063898E-01  9.161277389266E-02
H28 -1.161676217861E-01  2.847172936102E-01  4.083872261073E-01
C29 -3.185350160871E-01  2.368560396890E-01 -2.625921791591E-01
C30  3.185350160871E-01 -2.631439603110E-01 -2.374078208409E-01
C31  3.185350160871E-01 -2.368560396890E-01  2.625921791591E-01
C32 -3.185350160871E-01  2.631439603110E-01  2.374078208409E-01
H33 -3.567772832548E-01  7.129009577067E-02 -2.327351516607E-01
H34  3.567772832548E-01 -4.287099042293E-01 -2.672648483393E-01
H35  3.567772832548E-01 -7.129009577067E-02  2.327351516607E-01
H36 -3.567772832548E-01  4.287099042293E-01  2.672648483393E-01
C37 -4.109397475973E-01  3.659486474288E-01 -3.828159482901E-01
C38  4.109397475973E-01 -1.340513525712E-01 -1.171840517099E-01
C39  4.109397475973E-01 -3.659486474288E-01  3.828159482901E-01
C40 -4.109397475973E-01  1.340513525712E-01  1.171840517099E-01
C41 -4.518250679082E-01 -2.876165227336E-01  4.620373355594E-01
C42  4.518250679082E-01  2.123834772664E-01  3.796266444061E-02
C43  4.518250679082E-01  2.876165227336E-01 -4.620373355594E-01
C44 -4.518250679082E-01 -2.123834772664E-01 -3.796266444061E-02
H45 -4.138628320000E-01 -1.214583350602E-01  4.316567168322E-01
H46  4.138628320000E-01  3.785416649398E-01  6.834328316781E-02
H47  4.138628320000E-01  1.214583350602E-01 -4.316567168322E-01
H48 -4.138628320000E-01 -3.785416649398E-01 -6.834328316781E-02


#===END

data_OPT_STEP_22

_symmetry_space_group_name_H-M 'P 1'
_cell_length_a      9.33206576
_cell_length_b      6.06797635
_cell_length_c      8.47770877
_cell_angle_alpha   90.000000
_cell_angle_beta  100.751176
_cell_angle_gamma   90.000000

loop_
_atom_site_label
_atom_site_fract_x
_atom_site_fract_y
_atom_site_fract_z
C1 -3.614494951928E-01 -4.171795423223E-01 -4.218583132402E-01
C2  3.614494951928E-01  8.282045767768E-02 -7.814168675984E-02
C3  3.614494951928E-01  4.171795423223E-01  4.218583132402E-01
C4 -3.614494951928E-01 -8.282045767768E-02  7.814168675984E-02
C5 -2.206452213090E-01 -3.410683495731E-01 -3.406320332833E-01
C6  2.206452213090E-01  1.589316504269E-01 -1.593679667167E-01
C7  2.206452213090E-01  3.410683495731E-01  3.406320332833E-01
C8 -2.206452213090E-01 -1.589316504269E-01  1.593679667167E-01
H9 -1.831510535579E-01 -1.753797618822E-01 -3.716296365705E-01
H10  1.831510535579E-01  3.246202381178E-01 -1.283703634295E-01
H11  1.831510535579E-01  1.753797618822E-01  3.716296365705E-01
H12 -1.831510535579E-01 -3.246202381178E-01  1.283703634295E-01
C13 -1.352390923273E-01 -4.692825207477E-01 -2.251771042234E-01
C14  1.352390923273E-01  3.071747925229E-02 -2.748228957766E-01
C15  1.352390923273E-01  4.692825207477E-01  2.251771042234E-01
C16 -1.352390923273E-01 -3.071747925229E-02  2.748228957766E-01
H17 -2.745481305007E-02 -4.068967015533E-01 -1.627953557635E-01
H18  2.745481305007E-02  9.310329844668E-02 -3.372046442365E-01
H19  2.745481305007E-02  4.068967015533E-01  1.627953557635E-01
H20 -2.745481305007E-02 -9.310329844668E-02  3.372046442365E-01
C21 -1.847995718941E-01  3.168899888454E-01 -1.850214819250E-01
C22  1.847995718941E-01 -1.831100111546E-01 -3.149785180750E-01
C23  1.847995718941E-01 -3.168899888454E-01  1.850214819250E-01
C24 -1.847995718941E-01  1.831100111546E-01  3.149785180750E-01
H25 -1.154019959672E-01  2.153787792199E-01 -9.139705782913E-02
H26  1.154019959672E-01 -2.846212207801E-01 -4.086029421709E-01
H27  1.154019959672E-01 -2.153787792199E-01  9.139705782913E-02
H28 -1.154019959672E-01  2.846212207801E-01  4.086029421709E-01
C29 -3.180476662834E-01  2.367306382918E-01 -2.623993852750E-01
C30  3.180476662834E-01 -2.632693617082E-01 -2.376006147250E-01
C31  3.180476662834E-01 -2.367306382918E-01  2.623993852750E-01
C32 -3.180476662834E-01  2.632693617082E-01  2.376006147250E-01
H33 -3.560867359482E-01  7.110285120483E-02 -2.325142864151E-01
H34  3.560867359482E-01 -4.288971487952E-01 -2.674857135849E-01
H35  3.560867359482E-01 -7.110285120483E-02  2.325142864151E-01
H36 -3.560867359482E-01  4.288971487952E-01  2.674857135849E-01
C37 -4.106154873263E-01  3.657191531608E-01 -3.828777878862E-01
C38  4.106154873263E-01 -1.342808468392E-01 -1.171222121138E-01
C39  4.106154873263E-01 -3.657191531608E-01  3.828777878862E-01
C40 -4.106154873263E-01  1.342808468392E-01  1.171222121138E-01
C41 -4.519951386112E-01 -2.876554646434E-01  4.617971922529E-01
C42  4.519951386112E-01  2.123445353566E-01  3.820280774706E-02
C43  4.519951386112E-01  2.876554646434E-01 -4.617971922529E-01
C44 -4.519951386112E-01 -2.123445353566E-01 -3.820280774706E-02
H45 -4.139564517823E-01 -1.219030141008E-01  4.308946567542E-01
H46  4.139564517823E-01  3.780969858992E-01  6.910534324584E-02
H47  4.139564517823E-01  1.219030141008E-01 -4.308946567542E-01
H48 -4.139564517823E-01 -3.780969858992E-01 -6.910534324584E-02


#===END

data_OPT_STEP_23

_symmetry_space_group_name_H-M 'P 1'
_cell_length_a      9.33187942
_cell_length_b      6.06819592
_cell_length_c      8.48094579
_cell_angle_alpha   90.000000
_cell_angle_beta  100.780817
_cell_angle_gamma   90.000000

loop_
_atom_site_label
_atom_site_fract_x
_atom_site_fract_y
_atom_site_fract_z
C1 -3.614811990643E-01 -4.170721267079E-01 -4.217645677323E-01
C2  3.614811990643E-01  8.292787329215E-02 -7.823543226766E-02
C3  3.614811990643E-01  4.170721267079E-01  4.217645677323E-01
C4 -3.614811990643E-01 -8.292787329215E-02  7.823543226766E-02
C5 -2.206987301697E-01 -3.408500857034E-01 -3.404376641973E-01
C6  2.206987301697E-01  1.591499142966E-01 -1.595623358027E-01
C7  2.206987301697E-01  3.408500857034E-01  3.404376641973E-01
C8 -2.206987301697E-01 -1.591499142966E-01  1.595623358027E-01
H9 -1.831977490530E-01 -1.752207133601E-01 -3.714824943336E-01
H10  1.831977490530E-01  3.247792866399E-01 -1.285175056664E-01
H11  1.831977490530E-01  1.752207133601E-01  3.714824943336E-01
H12 -1.831977490530E-01 -3.247792866399E-01  1.285175056664E-01
C13 -1.351895630892E-01 -4.691334894490E-01 -2.250939902117E-01
C14  1.351895630892E-01  3.086651055102E-02 -2.749060097883E-01
C15  1.351895630892E-01  4.691334894490E-01  2.250939902117E-01
C16 -1.351895630892E-01 -3.086651055102E-02  2.749060097883E-01
H17 -2.736884674418E-02 -4.067327625773E-01 -1.627459933544E-01
H18  2.736884674418E-02  9.326723742272E-02 -3.372540066456E-01
H19  2.736884674418E-02  4.067327625773E-01  1.627459933544E-01
H20 -2.736884674418E-02 -9.326723742272E-02  3.372540066456E-01
C21 -1.847494628041E-01  3.170810229844E-01 -1.849035623328E-01
C22  1.847494628041E-01 -1.829189770156E-01 -3.150964376672E-01
C23  1.847494628041E-01 -3.170810229844E-01  1.849035623328E-01
C24 -1.847494628041E-01  1.829189770156E-01  3.150964376672E-01
H25 -1.152625413334E-01  2.155307987741E-01 -9.136498380560E-02
H26  1.152625413334E-01 -2.844692012259E-01 -4.086350161944E-01
H27  1.152625413334E-01 -2.155307987741E-01  9.136498380560E-02
H28 -1.152625413334E-01  2.844692012259E-01  4.086350161944E-01
C29 -3.180325654137E-01  2.369261899816E-01 -2.622598702464E-01
C30  3.180325654137E-01 -2.630738100184E-01 -2.377401297536E-01
C31  3.180325654137E-01 -2.369261899816E-01  2.622598702464E-01
C32 -3.180325654137E-01  2.630738100184E-01  2.377401297536E-01
H33 -3.561345599489E-01  7.143987305773E-02 -2.322251171022E-01
H34  3.561345599489E-01 -4.285601269423E-01 -2.677748828978E-01
H35  3.561345599489E-01 -7.143987305773E-02  2.322251171022E-01
H36 -3.561345599489E-01  4.285601269423E-01  2.677748828978E-01
C37 -4.106467816351E-01  3.658768451955E-01 -3.827344102134E-01
C38  4.106467816351E-01 -1.341231548045E-01 -1.172655897866E-01
C39  4.106467816351E-01 -3.658768451955E-01  3.827344102134E-01
C40 -4.106467816351E-01  1.341231548045E-01  1.172655897866E-01
C41 -4.519865771982E-01 -2.877232853890E-01  4.617391658342E-01
C42  4.519865771982E-01  2.122767146110E-01  3.826083416578E-02
C43  4.519865771982E-01  2.877232853890E-01 -4.617391658342E-01
C44 -4.519865771982E-01 -2.122767146110E-01 -3.826083416578E-02
H45 -4.139367691372E-01 -1.220313378298E-01  4.307904690091E-01
H46  4.139367691372E-01  3.779686621702E-01  6.920953099093E-02
H47  4.139367691372E-01  1.220313378298E-01 -4.307904690091E-01
H48 -4.139367691372E-01 -3.779686621702E-01 -6.920953099093E-02


#===END

data_OPT_STEP_24

_symmetry_space_group_name_H-M 'P 1'
_cell_length_a      9.32423122
_cell_length_b      6.07393498
_cell_length_c      8.48603335
_cell_angle_alpha   90.000000
_cell_angle_beta  100.787248
_cell_angle_gamma   90.000000

loop_
_atom_site_label
_atom_site_fract_x
_atom_site_fract_y
_atom_site_fract_z
C1 -3.614298592762E-01 -4.170253512293E-01 -4.216838374421E-01
C2  3.614298592762E-01  8.297464877074E-02 -7.831616255790E-02
C3  3.614298592762E-01  4.170253512293E-01  4.216838374421E-01
C4 -3.614298592762E-01 -8.297464877073E-02  7.831616255790E-02
C5 -2.206016721877E-01 -3.407114546558E-01 -3.402471931549E-01
C6  2.206016721877E-01  1.592885453442E-01 -1.597528068451E-01
C7  2.206016721877E-01  3.407114546558E-01  3.402471931549E-01
C8 -2.206016721877E-01 -1.592885453442E-01  1.597528068451E-01
H9 -1.830805116058E-01 -1.752361402581E-01 -3.713501947405E-01
H10  1.830805116058E-01  3.247638597419E-01 -1.286498052595E-01
H11  1.830805116058E-01  1.752361402581E-01  3.713501947405E-01
H12 -1.830805116058E-01 -3.247638597419E-01  1.286498052595E-01
C13 -1.350413228927E-01 -4.688422714657E-01 -2.248907186771E-01
C14  1.350413228927E-01  3.115772853429E-02 -2.751092813229E-01
C15  1.350413228927E-01  4.688422714657E-01  2.248907186771E-01
C16 -1.350413228927E-01 -3.115772853429E-02  2.751092813229E-01
H17 -2.709038500789E-02 -4.065651403219E-01 -1.626424693349E-01
H18  2.709038500789E-02  9.343485967809E-02 -3.373575306651E-01
H19  2.709038500789E-02  4.065651403219E-01  1.626424693349E-01
H20 -2.709038500789E-02 -9.343485967809E-02  3.373575306651E-01
C21 -1.846304768135E-01  3.175300893782E-01 -1.847452276844E-01
C22  1.846304768135E-01 -1.824699106218E-01 -3.152547723156E-01
C23  1.846304768135E-01 -3.175300893782E-01  1.847452276844E-01
C24 -1.846304768135E-01  1.824699106218E-01  3.152547723156E-01
H25 -1.151111983492E-01  2.160760546591E-01 -9.121834245891E-02
H26  1.151111983492E-01 -2.839239453409E-01 -4.087816575411E-01
H27  1.151111983492E-01 -2.160760546591E-01  9.121834245891E-02
H28 -1.151111983492E-01  2.839239453409E-01  4.087816575411E-01
C29 -3.179778671341E-01  2.373723963213E-01 -2.621592613067E-01
C30  3.179778671341E-01 -2.626276036787E-01 -2.378407386933E-01
C31  3.179778671341E-01 -2.373723963213E-01  2.621592613067E-01
C32 -3.179778671341E-01  2.626276036787E-01  2.378407386933E-01
H33 -3.561030830803E-01  7.203766442970E-02 -2.321349192705E-01
H34  3.561030830803E-01 -4.279623355703E-01 -2.678650807295E-01
H35  3.561030830803E-01 -7.203766442970E-02  2.321349192705E-01
H36 -3.561030830803E-01  4.279623355703E-01  2.678650807295E-01
C37 -4.106532127977E-01  3.661569243274E-01 -3.826231286406E-01
C38  4.106532127977E-01 -1.338430756726E-01 -1.173768713595E-01
C39  4.106532127977E-01 -3.661569243274E-01  3.826231286406E-01
C40 -4.106532127977E-01  1.338430756726E-01  1.173768713594E-01
C41 -4.519347087175E-01 -2.879478458984E-01  4.617216782446E-01
C42  4.519347087175E-01  2.120521541016E-01  3.827832175544E-02
C43  4.519347087175E-01  2.879478458984E-01 -4.617216782446E-01
C44 -4.519347087175E-01 -2.120521541016E-01 -3.827832175544E-02
H45 -4.139046611161E-01 -1.223237343741E-01  4.308850900777E-01
H46  4.139046611161E-01  3.776762656259E-01  6.911490992229E-02
H47  4.139046611161E-01  1.223237343741E-01 -4.308850900777E-01
H48 -4.139046611161E-01 -3.776762656259E-01 -6.911490992229E-02


#===END

data_OPT_STEP_25

_symmetry_space_group_name_H-M 'P 1'
_cell_length_a      9.32383539
_cell_length_b      6.06766265
_cell_length_c      8.49398963
_cell_angle_alpha   90.000000
_cell_angle_beta  100.909236
_cell_angle_gamma   90.000000

loop_
_atom_site_label
_atom_site_fract_x
_atom_site_fract_y
_atom_site_fract_z
C1 -3.613909108089E-01 -4.167898678776E-01 -4.214601221278E-01
C2  3.613909108089E-01  8.321013212237E-02 -7.853987787223E-02
C3  3.613909108089E-01  4.167898678776E-01  4.214601221278E-01
C4 -3.613909108089E-01 -8.321013212237E-02  7.853987787223E-02
C5 -2.204917584781E-01 -3.402840380875E-01 -3.398608175352E-01
C6  2.204917584781E-01  1.597159619125E-01 -1.601391824648E-01
C7  2.204917584781E-01  3.402840380875E-01  3.398608175352E-01
C8 -2.204917584781E-01 -1.597159619125E-01  1.601391824648E-01
H9 -1.829442898874E-01 -1.747322792162E-01 -3.710529034057E-01
H10  1.829442898874E-01  3.252677207838E-01 -1.289470965943E-01
H11  1.829442898874E-01  1.747322792162E-01  3.710529034057E-01
H12 -1.829442898874E-01 -3.252677207838E-01  1.289470965943E-01
C13 -1.346901323909E-01 -4.685727877584E-01 -2.245848686495E-01
C14  1.346901323909E-01  3.142721224157E-02 -2.754151313505E-01
C15  1.346901323909E-01  4.685727877584E-01  2.245848686495E-01
C16 -1.346901323909E-01 -3.142721224156E-02  2.754151313505E-01
H17 -2.661464608189E-02 -4.061150301211E-01 -1.624040925524E-01
H18  2.661464608189E-02  9.388496987889E-02 -3.375959074476E-01
H19  2.661464608189E-02  4.061150301211E-01  1.624040925524E-01
H20 -2.661464608189E-02 -9.388496987889E-02  3.375959074476E-01
C21 -1.842495657657E-01  3.176476807863E-01 -1.844027357125E-01
C22  1.842495657657E-01 -1.823523192137E-01 -3.155972642875E-01
C23  1.842495657657E-01 -3.176476807863E-01  1.844027357125E-01
C24 -1.842495657657E-01  1.823523192137E-01  3.155972642875E-01
H25 -1.145583154437E-01  2.161131481027E-01 -9.086922226920E-02
H26  1.145583154437E-01 -2.838868518973E-01 -4.091307777308E-01
H27  1.145583154437E-01 -2.161131481027E-01  9.086922226920E-02
H28 -1.145583154437E-01  2.838868518973E-01  4.091307777308E-01
C29 -3.177398963604E-01  2.373868891637E-01 -2.618489090848E-01
C30  3.177398963604E-01 -2.626131108363E-01 -2.381510909153E-01
C31  3.177398963604E-01 -2.373868891637E-01  2.618489090848E-01
C32 -3.177398963604E-01  2.626131108363E-01  2.381510909153E-01
H33 -3.558989698202E-01  7.201737738691E-02 -2.316715002498E-01
H34  3.558989698202E-01 -4.279826226131E-01 -2.683284997502E-01
H35  3.558989698202E-01 -7.201737738691E-02  2.316715002498E-01
H36 -3.558989698202E-01  4.279826226131E-01  2.683284997502E-01
C37 -4.105751497939E-01  3.662009475195E-01 -3.824088318471E-01
C38  4.105751497939E-01 -1.337990524805E-01 -1.175911681529E-01
C39  4.105751497939E-01 -3.662009475195E-01  3.824088318471E-01
C40 -4.105751497939E-01  1.337990524805E-01  1.175911681529E-01
C41 -4.519695399856E-01 -2.877406485257E-01  4.617640916925E-01
C42  4.519695399856E-01  2.122593514743E-01  3.823590830752E-02
C43  4.519695399856E-01  2.877406485257E-01 -4.617640916925E-01
C44 -4.519695399856E-01 -2.122593514743E-01 -3.823590830752E-02
H45 -4.139853791339E-01 -1.219225999839E-01  4.310183748103E-01
H46  4.139853791339E-01  3.780774000161E-01  6.898162518967E-02
H47  4.139853791339E-01  1.219225999839E-01 -4.310183748103E-01
H48 -4.139853791339E-01 -3.780774000161E-01 -6.898162518967E-02


#===END

data_OPT_STEP_26

_symmetry_space_group_name_H-M 'P 1'
_cell_length_a      9.32676275
_cell_length_b      6.06983480
_cell_length_c      8.49162269
_cell_angle_alpha   90.000000
_cell_angle_beta  100.957632
_cell_angle_gamma   90.000000

loop_
_atom_site_label
_atom_site_fract_x
_atom_site_fract_y
_atom_site_fract_z
C1 -3.613661613572E-01 -4.168446764006E-01 -4.214542298746E-01
C2  3.613661613572E-01  8.315532359945E-02 -7.854577012538E-02
C3  3.613661613572E-01  4.168446764006E-01  4.214542298746E-01
C4 -3.613661613572E-01 -8.315532359945E-02  7.854577012538E-02
C5 -2.204361934517E-01 -3.403764508157E-01 -3.398327412616E-01
C6  2.204361934517E-01  1.596235491843E-01 -1.601672587384E-01
C7  2.204361934517E-01  3.403764508157E-01  3.398327412616E-01
C8 -2.204361934517E-01 -1.596235491843E-01  1.601672587384E-01
H9 -1.829604935132E-01 -1.748642651351E-01 -3.710555022243E-01
H10  1.829604935132E-01  3.251357348649E-01 -1.289444977757E-01
H11  1.829604935132E-01  1.748642651351E-01  3.710555022243E-01
H12 -1.829604935132E-01 -3.251357348649E-01  1.289444977757E-01
C13 -1.345981729117E-01 -4.685743398614E-01 -2.244475124073E-01
C14  1.345981729117E-01  3.142566013861E-02 -2.755524875927E-01
C15  1.345981729117E-01  4.685743398614E-01  2.244475124073E-01
C16 -1.345981729117E-01 -3.142566013861E-02  2.755524875927E-01
H17 -2.650130185531E-02 -4.061426571233E-01 -1.622743672614E-01
H18  2.650130185531E-02  9.385734287666E-02 -3.377256327386E-01
H19  2.650130185531E-02  4.061426571233E-01  1.622743672614E-01
H20 -2.650130185531E-02 -9.385734287666E-02  3.377256327386E-01
C21 -1.841241025663E-01  3.177211546127E-01 -1.842478684684E-01
C22  1.841241025663E-01 -1.822788453873E-01 -3.157521315316E-01
C23  1.841241025663E-01 -3.177211546127E-01  1.842478684684E-01
C24 -1.841241025663E-01  1.822788453873E-01  3.157521315316E-01
H25 -1.143956690492E-01  2.161875518996E-01 -9.068534641567E-02
H26  1.143956690492E-01 -2.838124481004E-01 -4.093146535843E-01
H27  1.143956690492E-01 -2.161875518996E-01  9.068534641567E-02
H28 -1.143956690492E-01  2.838124481004E-01  4.093146535843E-01
C29 -3.176354226416E-01  2.374989025145E-01 -2.617211257123E-01
C30  3.176354226416E-01 -2.625010974855E-01 -2.382788742877E-01
C31  3.176354226416E-01 -2.374989025145E-01  2.617211257123E-01
C32 -3.176354226416E-01  2.625010974855E-01  2.382788742877E-01
H33 -3.557546258363E-01  7.218263314681E-02 -2.315456703893E-01
H34  3.557546258363E-01 -4.278173668532E-01 -2.684543296107E-01
H35  3.557546258363E-01 -7.218263314681E-02  2.315456703893E-01
H36 -3.557546258363E-01  4.278173668532E-01  2.684543296107E-01
C37 -4.105276269970E-01  3.662560926836E-01 -3.823387227957E-01
C38  4.105276269970E-01 -1.337439073164E-01 -1.176612772043E-01
C39  4.105276269970E-01 -3.662560926836E-01  3.823387227957E-01
C40 -4.105276269970E-01  1.337439073164E-01  1.176612772043E-01
C41 -4.519829968745E-01 -2.878619621012E-01  4.616805126685E-01
C42  4.519829968745E-01  2.121380378988E-01  3.831948733151E-02
C43  4.519829968745E-01  2.878619621012E-01 -4.616805126685E-01
C44 -4.519829968745E-01 -2.121380378988E-01 -3.831948733151E-02
H45 -4.140124008904E-01 -1.221404036524E-01  4.308765865478E-01
H46  4.140124008904E-01  3.778595963476E-01  6.912341345216E-02
H47  4.140124008904E-01  1.221404036524E-01 -4.308765865478E-01
H48 -4.140124008904E-01 -3.778595963476E-01 -6.912341345216E-02


#===END

data_OPT_STEP_27

_symmetry_space_group_name_H-M 'P 1'
_cell_length_a      9.33144139
_cell_length_b      6.07115604
_cell_length_c      8.48432397
_cell_angle_alpha   90.000000
_cell_angle_beta  101.019447
_cell_angle_gamma   90.000000

loop_
_atom_site_label
_atom_site_fract_x
_atom_site_fract_y
_atom_site_fract_z
C1 -3.613440652109E-01 -4.169146341945E-01 -4.214033863435E-01
C2  3.613440652109E-01  8.308536580551E-02 -7.859661365648E-02
C3  3.613440652109E-01  4.169146341945E-01  4.214033863435E-01
C4 -3.613440652109E-01 -8.308536580551E-02  7.859661365648E-02
C5 -2.203793168758E-01 -3.405049637716E-01 -3.397324964015E-01
C6  2.203793168758E-01  1.594950362284E-01 -1.602675035985E-01
C7  2.203793168758E-01  3.405049637716E-01  3.397324964015E-01
C8 -2.203793168758E-01 -1.594950362284E-01  1.602675035985E-01
H9 -1.830241981805E-01 -1.749788554806E-01 -3.709865893253E-01
H10  1.830241981805E-01  3.250211445194E-01 -1.290134106747E-01
H11  1.830241981805E-01  1.749788554806E-01  3.709865893253E-01
H12 -1.830241981805E-01 -3.250211445194E-01  1.290134106747E-01
C13 -1.344699790680E-01 -4.686705739071E-01 -2.242148587789E-01
C14  1.344699790680E-01  3.132942609287E-02 -2.757851412211E-01
C15  1.344699790680E-01  4.686705739071E-01  2.242148587789E-01
C16 -1.344699790680E-01 -3.132942609287E-02  2.757851412211E-01
H17 -2.636583873444E-02 -4.062689753323E-01 -1.619942538527E-01
H18  2.636583873444E-02  9.373102466769E-02 -3.380057461473E-01
H19  2.636583873444E-02  4.062689753323E-01  1.619942538527E-01
H20 -2.636583873444E-02 -9.373102466769E-02  3.380057461473E-01
C21 -1.839281311140E-01  3.176482123430E-01 -1.840211405788E-01
C22  1.839281311140E-01 -1.823517876570E-01 -3.159788594212E-01
C23  1.839281311140E-01 -3.176482123430E-01  1.840211405788E-01
C24 -1.839281311140E-01  1.823517876570E-01  3.159788594212E-01
H25 -1.141588167330E-01  2.160536296344E-01 -9.039839042149E-02
H26  1.141588167330E-01 -2.839463703656E-01 -4.096016095785E-01
H27  1.141588167330E-01 -2.160536296344E-01  9.039839042149E-02
H28 -1.141588167330E-01  2.839463703656E-01  4.096016095785E-01
C29 -3.174567080476E-01  2.374628327931E-01 -2.615752854159E-01
C30  3.174567080476E-01 -2.625371672069E-01 -2.384247145841E-01
C31  3.174567080476E-01 -2.374628327931E-01  2.615752854159E-01
C32 -3.174567080476E-01  2.625371672069E-01  2.384247145841E-01
H33 -3.554907493029E-01  7.212082178523E-02 -2.314526964088E-01
H34  3.554907493029E-01 -4.278791782148E-01 -2.685473035912E-01
H35  3.554907493029E-01 -7.212082178523E-02  2.314526964088E-01
H36 -3.554907493029E-01  4.278791782148E-01  2.685473035912E-01
C37 -4.104431030333E-01  3.662278504865E-01 -3.822725289924E-01
C38  4.104431030333E-01 -1.337721495135E-01 -1.177274710076E-01
C39  4.104431030333E-01 -3.662278504865E-01  3.822725289924E-01
C40 -4.104431030333E-01  1.337721495135E-01  1.177274710076E-01
C41 -4.520446640227E-01 -2.878887814443E-01  4.616678220464E-01
C42  4.520446640227E-01  2.121112185557E-01  3.833217795357E-02
C43  4.520446640227E-01  2.878887814443E-01 -4.616678220464E-01
C44 -4.520446640227E-01 -2.121112185557E-01 -3.833217795357E-02
H45 -4.141238116403E-01 -1.221851183154E-01  4.308594057851E-01
H46  4.141238116403E-01  3.778148816846E-01  6.914059421489E-02
H47  4.141238116403E-01  1.221851183154E-01 -4.308594057851E-01
H48 -4.141238116403E-01 -3.778148816846E-01 -6.914059421489E-02


#===END

data_OPT_STEP_28

_symmetry_space_group_name_H-M 'P 1'
_cell_length_a      9.33428462
_cell_length_b      6.07074370
_cell_length_c      8.48013829
_cell_angle_alpha   90.000000
_cell_angle_beta  101.068675
_cell_angle_gamma   90.000000

loop_
_atom_site_label
_atom_site_fract_x
_atom_site_fract_y
_atom_site_fract_z
C1 -3.613301192098E-01 -4.169513027473E-01 -4.212994733625E-01
C2  3.613301192098E-01  8.304869725270E-02 -7.870052663751E-02
C3  3.613301192098E-01  4.169513027473E-01  4.212994733625E-01
C4 -3.613301192098E-01 -8.304869725270E-02  7.870052663751E-02
C5 -2.203409696034E-01 -3.405857083947E-01 -3.395549674762E-01
C6  2.203409696034E-01  1.594142916053E-01 -1.604450325238E-01
C7  2.203409696034E-01  3.405857083947E-01  3.395549674762E-01
C8 -2.203409696034E-01 -1.594142916053E-01  1.604450325238E-01
H9 -1.830539123602E-01 -1.750194087087E-01 -3.708068491119E-01
H10  1.830539123602E-01  3.249805912913E-01 -1.291931508881E-01
H11  1.830539123602E-01  1.750194087087E-01  3.708068491119E-01
H12 -1.830539123602E-01 -3.249805912913E-01  1.291931508881E-01
C13 -1.343770404014E-01 -4.688033656192E-01 -2.239874130383E-01
C14  1.343770404014E-01  3.119663438076E-02 -2.760125869617E-01
C15  1.343770404014E-01  4.688033656192E-01  2.239874130383E-01
C16 -1.343770404014E-01 -3.119663438076E-02  2.760125869617E-01
H17 -2.625784530595E-02 -4.064406752612E-01 -1.616972628920E-01
H18  2.625784530595E-02  9.355932473881E-02 -3.383027371080E-01
H19  2.625784530595E-02  4.064406752612E-01  1.616972628920E-01
H20 -2.625784530595E-02 -9.355932473881E-02  3.383027371080E-01
C21 -1.838089006435E-01  3.174923467337E-01 -1.838191833777E-01
C22  1.838089006435E-01 -1.825076532663E-01 -3.161808166223E-01
C23  1.838089006435E-01 -3.174923467337E-01  1.838191833777E-01
C24 -1.838089006435E-01  1.825076532663E-01  3.161808166223E-01
H25 -1.140057713168E-01  2.158172216111E-01 -9.016076497629E-02
H26  1.140057713168E-01 -2.841827783889E-01 -4.098392350237E-01
H27  1.140057713168E-01 -2.158172216111E-01  9.016076497629E-02
H28 -1.140057713168E-01  2.841827783889E-01  4.098392350237E-01
C29 -3.173688570695E-01  2.373461103928E-01 -2.614411778254E-01
C30  3.173688570695E-01 -2.626538896072E-01 -2.385588221746E-01
C31  3.173688570695E-01 -2.373461103928E-01  2.614411778254E-01
C32 -3.173688570695E-01  2.626538896072E-01  2.385588221746E-01
H33 -3.553730398815E-01  7.197058167503E-02 -2.313485225063E-01
H34  3.553730398815E-01 -4.280294183250E-01 -2.686514774937E-01
H35  3.553730398815E-01 -7.197058167503E-02  2.313485225063E-01
H36 -3.553730398815E-01  4.280294183250E-01  2.686514774937E-01
C37 -4.104006141385E-01  3.661601383056E-01 -3.822105307566E-01
C38  4.104006141385E-01 -1.338398616944E-01 -1.177894692434E-01
C39  4.104006141385E-01 -3.661601383056E-01  3.822105307566E-01
C40 -4.104006141385E-01  1.338398616944E-01  1.177894692434E-01
C41 -4.520713853691E-01 -2.878542373675E-01  4.617044420284E-01
C42  4.520713853691E-01  2.121457626325E-01  3.829555797165E-02
C43  4.520713853691E-01  2.878542373675E-01 -4.617044420284E-01
C44 -4.520713853691E-01 -2.121457626325E-01 -3.829555797165E-02
H45 -4.141689884464E-01 -1.221265203826E-01  4.309147672168E-01
H46  4.141689884464E-01  3.778734796174E-01  6.908523278320E-02
H47  4.141689884464E-01  1.221265203826E-01 -4.309147672168E-01
H48 -4.141689884464E-01 -3.778734796174E-01 -6.908523278320E-02


#===END

data_OPT_STEP_29

_symmetry_space_group_name_H-M 'P 1'
_cell_length_a      9.33550644
_cell_length_b      6.07071346
_cell_length_c      8.47594282
_cell_angle_alpha   90.000000
_cell_angle_beta  101.107769
_cell_angle_gamma   90.000000

loop_
_atom_site_label
_atom_site_fract_x
_atom_site_fract_y
_atom_site_fract_z
C1 -3.613056966978E-01 -4.170156870173E-01 -4.211630691942E-01
C2  3.613056966978E-01  8.298431298268E-02 -7.883693080585E-02
C3  3.613056966978E-01  4.170156870173E-01  4.211630691942E-01
C4 -3.613056966978E-01 -8.298431298268E-02  7.883693080585E-02
C5 -2.202896130893E-01 -3.407141625527E-01 -3.393010221058E-01
C6  2.202896130893E-01  1.592858374473E-01 -1.606989778942E-01
C7  2.202896130893E-01  3.407141625527E-01  3.393010221058E-01
C8 -2.202896130893E-01 -1.592858374473E-01  1.606989778942E-01
H9 -1.830462920441E-01 -1.750958048506E-01 -3.704836351750E-01
H10  1.830462920441E-01  3.249041951494E-01 -1.295163648250E-01
H11  1.830462920441E-01  1.750958048506E-01  3.704836351750E-01
H12 -1.830462920441E-01 -3.249041951494E-01  1.295163648250E-01
C13 -1.342886921483E-01 -4.690425489401E-01 -2.237210107410E-01
C14  1.342886921483E-01  3.095745105987E-02 -2.762789892590E-01
C15  1.342886921483E-01  4.690425489401E-01  2.237210107410E-01
C16 -1.342886921483E-01 -3.095745105987E-02  2.762789892590E-01
H17 -2.614966647920E-02 -4.067782634404E-01 -1.613009473061E-01
H18  2.614966647920E-02  9.322173655959E-02 -3.386990526939E-01
H19  2.614966647920E-02  4.067782634404E-01  1.613009473061E-01
H20 -2.614966647920E-02 -9.322173655959E-02  3.386990526939E-01
C21 -1.837202017579E-01  3.172190547759E-01 -1.836432567721E-01
C22  1.837202017579E-01 -1.827809452241E-01 -3.163567432279E-01
C23  1.837202017579E-01 -3.172190547759E-01  1.836432567721E-01
C24 -1.837202017579E-01  1.827809452241E-01  3.163567432279E-01
H25 -1.138937332059E-01  2.154468075986E-01 -8.996173720311E-02
H26  1.138937332059E-01 -2.845531924014E-01 -4.100382627969E-01
H27  1.138937332059E-01 -2.154468075986E-01  8.996173720311E-02
H28 -1.138937332059E-01  2.845531924014E-01  4.100382627969E-01
C29 -3.173141374847E-01  2.371441594537E-01 -2.613716172984E-01
C30  3.173141374847E-01 -2.628558405463E-01 -2.386283827016E-01
C31  3.173141374847E-01 -2.371441594537E-01  2.613716172984E-01
C32 -3.173141374847E-01  2.628558405463E-01  2.386283827016E-01
H33 -3.553181828044E-01  7.174099953448E-02 -2.313459806802E-01
H34  3.553181828044E-01 -4.282590004655E-01 -2.686540193198E-01
H35  3.553181828044E-01 -7.174099953448E-02  2.313459806802E-01
H36 -3.553181828044E-01  4.282590004655E-01  2.686540193198E-01
C37 -4.103756677311E-01  3.660589644248E-01 -3.821801310233E-01
C38  4.103756677311E-01 -1.339410355752E-01 -1.178198689767E-01
C39  4.103756677311E-01 -3.660589644248E-01  3.821801310233E-01
C40 -4.103756677311E-01  1.339410355752E-01  1.178198689767E-01
C41 -4.520769273641E-01 -2.878108816646E-01  4.618128421067E-01
C42  4.520769273641E-01  2.121891183354E-01  3.818715789326E-02
C43  4.520769273641E-01  2.878108816646E-01 -4.618128421067E-01
C44 -4.520769273641E-01 -2.121891183354E-01 -3.818715789326E-02
H45 -4.141761871326E-01 -1.220496112443E-01  4.310932554584E-01
H46  4.141761871326E-01  3.779503887557E-01  6.890674454159E-02
H47  4.141761871326E-01  1.220496112443E-01 -4.310932554584E-01
H48 -4.141761871326E-01 -3.779503887557E-01 -6.890674454159E-02


#===END

data_OPT_STEP_30

_symmetry_space_group_name_H-M 'P 1'
_cell_length_a      9.33469065
_cell_length_b      6.07151929
_cell_length_c      8.47205183
_cell_angle_alpha   90.000000
_cell_angle_beta  101.145402
_cell_angle_gamma   90.000000

loop_
_atom_site_label
_atom_site_fract_x
_atom_site_fract_y
_atom_site_fract_z
C1 -3.612547491293E-01 -4.171666443680E-01 -4.209470905535E-01
C2  3.612547491293E-01  8.283335563200E-02 -7.905290944652E-02
C3  3.612547491293E-01  4.171666443680E-01  4.209470905535E-01
C4 -3.612547491293E-01 -8.283335563200E-02  7.905290944652E-02
C5 -2.201925705276E-01 -3.410129799280E-01 -3.388846345563E-01
C6  2.201925705276E-01  1.589870200720E-01 -1.611153654437E-01
C7  2.201925705276E-01  3.410129799280E-01  3.388846345563E-01
C8 -2.201925705276E-01 -1.589870200720E-01  1.611153654437E-01
H9 -1.829364488059E-01 -1.753536818289E-01 -3.699032299804E-01
H10  1.829364488059E-01  3.246463181711E-01 -1.300967700196E-01
H11  1.829364488059E-01  1.753536818289E-01  3.699032299804E-01
H12 -1.829364488059E-01 -3.246463181711E-01  1.300967700196E-01
C13 -1.341892454693E-01 -4.695400326020E-01 -2.233295659200E-01
C14  1.341892454693E-01  3.045996739796E-02 -2.766704340800E-01
C15  1.341892454693E-01  4.695400326020E-01  2.233295659200E-01
C16 -1.341892454693E-01 -3.045996739796E-02  2.766704340800E-01
H17 -2.600826695194E-02 -4.074705255362E-01 -1.606972708428E-01
H18  2.600826695194E-02  9.252947446382E-02 -3.393027291572E-01
H19  2.600826695194E-02  4.074705255362E-01  1.606972708428E-01
H20 -2.600826695194E-02 -9.252947446382E-02  3.393027291572E-01
C21 -1.836783435843E-01  3.166976874818E-01 -1.834415317633E-01
C22  1.836783435843E-01 -1.833023125182E-01 -3.165584682367E-01
C23  1.836783435843E-01 -3.166976874818E-01  1.834415317633E-01
C24 -1.836783435843E-01  1.833023125182E-01  3.165584682367E-01
H25 -1.138450769517E-01  2.148017005216E-01 -8.974245282662E-02
H26  1.138450769517E-01 -2.851982994784E-01 -4.102575471734E-01
H27  1.138450769517E-01 -2.148017005216E-01  8.974245282662E-02
H28 -1.138450769517E-01  2.851982994784E-01  4.102575471734E-01
C29 -3.173325632306E-01  2.367884223716E-01 -2.613382676086E-01
C30  3.173325632306E-01 -2.632115776284E-01 -2.386617323914E-01
C31  3.173325632306E-01 -2.367884223716E-01  2.613382676086E-01
C32 -3.173325632306E-01  2.632115776284E-01  2.386617323914E-01
H33 -3.553970370458E-01  7.138966740398E-02 -2.314317843984E-01
H34  3.553970370458E-01 -4.286103325960E-01 -2.685682156016E-01
H35  3.553970370458E-01 -7.138966740398E-02  2.314317843984E-01
H36 -3.553970370458E-01  4.286103325960E-01  2.685682156016E-01
C37 -4.103850692177E-01  3.658856231731E-01 -3.821684202310E-01
C38  4.103850692177E-01 -1.341143768269E-01 -1.178315797690E-01
C39  4.103850692177E-01 -3.658856231731E-01  3.821684202310E-01
C40 -4.103850692177E-01  1.341143768269E-01  1.178315797690E-01
C41 -4.520207748960E-01 -2.877912554151E-01  4.620099809253E-01
C42  4.520207748960E-01  2.122087445849E-01  3.799001907474E-02
C43  4.520207748960E-01  2.877912554151E-01 -4.620099809253E-01
C44 -4.520207748960E-01 -2.122087445849E-01 -3.799001907474E-02
H45 -4.140735466761E-01 -1.220145949753E-01  4.314258180218E-01
H46  4.140735466761E-01  3.779854050247E-01  6.857418197818E-02
H47  4.140735466761E-01  1.220145949753E-01 -4.314258180218E-01
H48 -4.140735466761E-01 -3.779854050247E-01 -6.857418197818E-02


#===END

data_OPT_STEP_31

_symmetry_space_group_name_H-M 'P 1'
_cell_length_a      9.33072277
_cell_length_b      6.07452435
_cell_length_c      8.46879686
_cell_angle_alpha   90.000000
_cell_angle_beta  101.166434
_cell_angle_gamma   90.000000

loop_
_atom_site_label
_atom_site_fract_x
_atom_site_fract_y
_atom_site_fract_z
C1 -3.611707011139E-01 -4.174221097711E-01 -4.206962511014E-01
C2  3.611707011139E-01  8.257789022888E-02 -7.930374889858E-02
C3  3.611707011139E-01  4.174221097711E-01  4.206962511014E-01
C4 -3.611707011139E-01 -8.257789022888E-02  7.930374889858E-02
C5 -2.200414276517E-01 -3.415130203496E-01 -3.383706962677E-01
C6  2.200414276517E-01  1.584869796504E-01 -1.616293037323E-01
C7  2.200414276517E-01  3.415130203496E-01  3.383706962677E-01
C8 -2.200414276517E-01 -1.584869796504E-01  1.616293037323E-01
H9 -1.826915008096E-01 -1.758581776742E-01 -3.691061386591E-01
H10  1.826915008096E-01  3.241418223258E-01 -1.308938613409E-01
H11  1.826915008096E-01  1.758581776742E-01  3.691061386591E-01
H12 -1.826915008096E-01 -3.241418223258E-01  1.308938613409E-01
C13 -1.340803882841E-01 -4.702948579534E-01 -2.228872748610E-01
C14  1.340803882841E-01  2.970514204665E-02 -2.771127251390E-01
C15  1.340803882841E-01  4.702948579534E-01  2.228872748610E-01
C16 -1.340803882841E-01 -2.970514204665E-02  2.771127251390E-01
H17 -2.584426875449E-02 -4.084936846162E-01 -1.599826199092E-01
H18  2.584426875449E-02  9.150631538385E-02 -3.400173800908E-01
H19  2.584426875449E-02  4.084936846162E-01  1.599826199092E-01
H20 -2.584426875449E-02 -9.150631538385E-02  3.400173800908E-01
C21 -1.836878075214E-01  3.159677208991E-01 -1.832973541019E-01
C22  1.836878075214E-01 -1.840322791009E-01 -3.167026458981E-01
C23  1.836878075214E-01 -3.159677208991E-01  1.832973541019E-01
C24 -1.836878075214E-01  1.840322791009E-01  3.167026458981E-01
H25 -1.138711570650E-01  2.139317676327E-01 -8.961673861287E-02
H26  1.138711570650E-01 -2.860682323673E-01 -4.103832613871E-01
H27  1.138711570650E-01 -2.139317676327E-01  8.961673861287E-02
H28 -1.138711570650E-01  2.860682323673E-01  4.103832613871E-01
C29 -3.174208528648E-01  2.363303199619E-01 -2.614199827679E-01
C30  3.174208528648E-01 -2.636696800381E-01 -2.385800172321E-01
C31  3.174208528648E-01 -2.363303199619E-01  2.614199827679E-01
C32 -3.174208528648E-01  2.636696800381E-01  2.385800172321E-01
H33 -3.556065856025E-01  7.099218558707E-02 -2.317063319930E-01
H34  3.556065856025E-01 -4.290078144129E-01 -2.682936680070E-01
H35  3.556065856025E-01 -7.099218558707E-02  2.317063319930E-01
H36 -3.556065856025E-01  4.290078144129E-01  2.682936680070E-01
C37 -4.104289970753E-01  3.656735914015E-01 -3.822103753597E-01
C38  4.104289970753E-01 -1.343264085985E-01 -1.177896246403E-01
C39  4.104289970753E-01 -3.656735914015E-01  3.822103753597E-01
C40 -4.104289970753E-01  1.343264085985E-01  1.177896246403E-01
C41 -4.518998742633E-01 -2.878384278851E-01  4.622970837712E-01
C42  4.518998742634E-01  2.121615721149E-01  3.770291622877E-02
C43  4.518998742633E-01  2.878384278851E-01 -4.622970837712E-01
C44 -4.518998742633E-01 -2.121615721149E-01 -3.770291622877E-02
H45 -4.138529130042E-01 -1.221030568062E-01  4.319166716647E-01
H46  4.138529130042E-01  3.778969431938E-01  6.808332833528E-02
H47  4.138529130042E-01  1.221030568062E-01 -4.319166716647E-01
H48 -4.138529130042E-01 -3.778969431938E-01 -6.808332833528E-02


#===END

data_OPT_STEP_32

_symmetry_space_group_name_H-M 'P 1'
_cell_length_a      9.32445440
_cell_length_b      6.07912361
_cell_length_c      8.46740282
_cell_angle_alpha   90.000000
_cell_angle_beta  101.164459
_cell_angle_gamma   90.000000

loop_
_atom_site_label
_atom_site_fract_x
_atom_site_fract_y
_atom_site_fract_z
C1 -3.610698383032E-01 -4.177454564093E-01 -4.204803741435E-01
C2  3.610698383032E-01  8.225454359072E-02 -7.951962585646E-02
C3  3.610698383032E-01  4.177454564093E-01  4.204803741435E-01
C4 -3.610698383032E-01 -8.225454359072E-02  7.951962585646E-02
C5 -2.198620916234E-01 -3.421527134222E-01 -3.379020204837E-01
C6  2.198620916234E-01  1.578472865778E-01 -1.620979795163E-01
C7  2.198620916234E-01  3.421527134222E-01  3.379020204837E-01
C8 -2.198620916234E-01 -1.578472865778E-01  1.620979795163E-01
H9 -1.823361684254E-01 -1.765720400206E-01 -3.683194883530E-01
H10  1.823361684254E-01  3.234279599794E-01 -1.316805116470E-01
H11  1.823361684254E-01  1.765720400206E-01  3.683194883530E-01
H12 -1.823361684254E-01 -3.234279599794E-01  1.316805116470E-01
C13 -1.339866452388E-01 -4.711703407424E-01 -2.225113522912E-01
C14  1.339866452388E-01  2.882965925755E-02 -2.774886477088E-01
C15  1.339866452388E-01  4.711703407424E-01  2.225113522912E-01
C16 -1.339866452388E-01 -2.882965925755E-02  2.774886477088E-01
H17 -2.569544146832E-02 -4.096095728100E-01 -1.593759906380E-01
H18  2.569544146832E-02  9.039042719002E-02 -3.406240093620E-01
H19  2.569544146832E-02  4.096095728100E-01  1.593759906380E-01
H20 -2.569544146832E-02 -9.039042719002E-02  3.406240093620E-01
C21 -1.837564885612E-01  3.151781190295E-01 -1.832493374511E-01
C22  1.837564885612E-01 -1.848218809705E-01 -3.167506625489E-01
C23  1.837564885612E-01 -3.151781190295E-01  1.832493374511E-01
C24 -1.837564885612E-01  1.848218809705E-01  3.167506625489E-01
H25 -1.139937609219E-01  2.130092438752E-01 -8.961774664618E-02
H26  1.139937609219E-01 -2.869907561248E-01 -4.103822533538E-01
H27  1.139937609219E-01 -2.130092438752E-01  8.961774664618E-02
H28 -1.139937609219E-01  2.869907561248E-01  4.103822533538E-01
C29 -3.175764534412E-01  2.358738471210E-01 -2.615929032989E-01
C30  3.175764534412E-01 -2.641261528790E-01 -2.384070967011E-01
C31  3.175764534412E-01 -2.358738471210E-01  2.615929032989E-01
C32 -3.175764534412E-01  2.641261528790E-01  2.384070967011E-01
H33 -3.559230163707E-01  7.064873379470E-02 -2.320929038875E-01
H34  3.559230163707E-01 -4.293512662053E-01 -2.679070961125E-01
H35  3.559230163707E-01 -7.064873379470E-02  2.320929038875E-01
H36 -3.559230163707E-01  4.293512662053E-01  2.679070961125E-01
C37 -4.105049030918E-01  3.654626823622E-01 -3.822971283013E-01
C38  4.105049030918E-01 -1.345373176378E-01 -1.177028716987E-01
C39  4.105049030918E-01 -3.654626823622E-01  3.822971283013E-01
C40 -4.105049030918E-01  1.345373176378E-01  1.177028716987E-01
C41 -4.517246787394E-01 -2.879595469780E-01  4.625869403741E-01
C42  4.517246787394E-01  2.120404530220E-01  3.741305962588E-02
C43  4.517246787394E-01  2.879595469780E-01 -4.625869403741E-01
C44 -4.517246787394E-01 -2.120404530220E-01 -3.741305962588E-02
H45 -4.135371132689E-01 -1.223246307666E-01  4.324238608285E-01
H46  4.135371132689E-01  3.776753692334E-01  6.757613917154E-02
H47  4.135371132689E-01  1.223246307666E-01 -4.324238608285E-01
H48 -4.135371132689E-01 -3.776753692334E-01 -6.757613917154E-02


#===END

data_OPT_STEP_33

_symmetry_space_group_name_H-M 'P 1'
_cell_length_a      9.31903068
_cell_length_b      6.08367246
_cell_length_c      8.46692276
_cell_angle_alpha   90.000000
_cell_angle_beta  101.145627
_cell_angle_gamma   90.000000

loop_
_atom_site_label
_atom_site_fract_x
_atom_site_fract_y
_atom_site_fract_z
C1 -3.609964043540E-01 -4.179980031521E-01 -4.203843729501E-01
C2  3.609964043540E-01  8.200199684793E-02 -7.961562704989E-02
C3  3.609964043540E-01  4.179980031521E-01  4.203843729501E-01
C4 -3.609964043540E-01 -8.200199684793E-02  7.961562704989E-02
C5 -2.197319161832E-01 -3.426585280369E-01 -3.376664482551E-01
C6  2.197319161832E-01  1.573414719631E-01 -1.623335517449E-01
C7  2.197319161832E-01  3.426585280369E-01  3.376664482551E-01
C8 -2.197319161832E-01 -1.573414719631E-01  1.623335517449E-01
H9 -1.820478840250E-01 -1.771828136848E-01 -3.678600385059E-01
H10  1.820478840250E-01  3.228171863152E-01 -1.321399614941E-01
H11  1.820478840250E-01  1.771828136848E-01  3.678600385059E-01
H12 -1.820478840250E-01 -3.228171863152E-01  1.321399614941E-01
C13 -1.339254229676E-01 -4.717944579954E-01 -2.223479424674E-01
C14  1.339254229676E-01  2.820554200462E-02 -2.776520575326E-01
C15  1.339254229676E-01  4.717944579954E-01  2.223479424674E-01
C16 -1.339254229676E-01 -2.820554200462E-02  2.776520575326E-01
H17 -2.560847651017E-02 -4.103283172359E-01 -1.591171783823E-01
H18  2.560847651017E-02  8.967168276410E-02 -3.408828216177E-01
H19  2.560847651017E-02  4.103283172359E-01  1.591171783823E-01
H20 -2.560847651017E-02 -8.967168276410E-02  3.408828216177E-01
C21 -1.838126089573E-01  3.146638449090E-01 -1.833112841621E-01
C22  1.838126089573E-01 -1.853361550910E-01 -3.166887158379E-01
C23  1.838126089573E-01 -3.146638449090E-01  1.833112841621E-01
C24 -1.838126089573E-01  1.853361550910E-01  3.166887158379E-01
H25 -1.141062464561E-01  2.123902800283E-01 -8.975384960455E-02
H26  1.141062464561E-01 -2.876097199717E-01 -4.102461503955E-01
H27  1.141062464561E-01 -2.123902800283E-01  8.975384960455E-02
H28 -1.141062464561E-01  2.876097199717E-01  4.102461503955E-01
C29 -3.176910069119E-01  2.356121280889E-01 -2.617880475917E-01
C30  3.176910069119E-01 -2.643878719111E-01 -2.382119524083E-01
C31  3.176910069119E-01 -2.356121280889E-01  2.617880475917E-01
C32 -3.176910069119E-01  2.643878719111E-01  2.382119524083E-01
H33 -3.561468159814E-01  7.049106105997E-02 -2.324474966803E-01
H34  3.561468159814E-01 -4.295089389400E-01 -2.675525033197E-01
H35  3.561468159814E-01 -7.049106105997E-02  2.324474966803E-01
H36 -3.561468159814E-01  4.295089389400E-01  2.675525033197E-01
C37 -4.105627224868E-01  3.653423478213E-01 -3.823919099780E-01
C38  4.105627224868E-01 -1.346576521787E-01 -1.176080900220E-01
C39  4.105627224868E-01 -3.653423478213E-01  3.823919099780E-01
C40 -4.105627224868E-01  1.346576521787E-01  1.176080900220E-01
C41 -4.515919870859E-01 -2.880928250139E-01  4.627718023126E-01
C42  4.515919870859E-01  2.119071749861E-01  3.722819768737E-02
C43  4.515919870859E-01  2.880928250139E-01 -4.627718023126E-01
C44 -4.515919870859E-01 -2.119071749861E-01 -3.722819768737E-02
H45 -4.132960553329E-01 -1.225710782167E-01  4.327545912730E-01
H46  4.132960553329E-01  3.774289217833E-01  6.724540872698E-02
H47  4.132960553329E-01  1.225710782167E-01 -4.327545912730E-01
H48 -4.132960553329E-01 -3.774289217833E-01 -6.724540872698E-02


#===END

data_OPT_STEP_34

_symmetry_space_group_name_H-M 'P 1'
_cell_length_a      9.31706386
_cell_length_b      6.08587131
_cell_length_c      8.46627056
_cell_angle_alpha   90.000000
_cell_angle_beta  101.130835
_cell_angle_gamma   90.000000

loop_
_atom_site_label
_atom_site_fract_x
_atom_site_fract_y
_atom_site_fract_z
C1 -3.609720687982E-01 -4.181033279393E-01 -4.203818153762E-01
C2  3.609720687982E-01  8.189667206073E-02 -7.961818462377E-02
C3  3.609720687982E-01  4.181033279393E-01  4.203818153762E-01
C4 -3.609720687982E-01 -8.189667206073E-02  7.961818462377E-02
C5 -2.196862499379E-01 -3.428770649181E-01 -3.376438333110E-01
C6  2.196862499379E-01  1.571229350819E-01 -1.623561666890E-01
C7  2.196862499379E-01  3.428770649181E-01  3.376438333110E-01
C8 -2.196862499379E-01 -1.571229350819E-01  1.623561666890E-01
H9 -1.819389597177E-01 -1.774673571078E-01 -3.677822616800E-01
H10  1.819389597177E-01  3.225326428922E-01 -1.322177383200E-01
H11  1.819389597177E-01  1.774673571078E-01  3.677822616800E-01
H12 -1.819389597177E-01 -3.225326428922E-01  1.322177383200E-01
C13 -1.338998927447E-01 -4.720230222594E-01 -2.223448596055E-01
C14  1.338998927447E-01  2.797697774065E-02 -2.776551403945E-01
C15  1.338998927447E-01  4.720230222594E-01  2.223448596055E-01
C16 -1.338998927447E-01 -2.797697774064E-02  2.776551403945E-01
H17 -2.558345690344E-02 -4.105259724780E-01 -1.591373428833E-01
H18  2.558345690344E-02  8.947402752201E-02 -3.408626571167E-01
H19  2.558345690344E-02  4.105259724780E-01  1.591373428833E-01
H20 -2.558345690344E-02 -8.947402752201E-02  3.408626571167E-01
C21 -1.838222681303E-01  3.145003189850E-01 -1.833742866387E-01
C22  1.838222681303E-01 -1.854996810150E-01 -3.166257133613E-01
C23  1.838222681303E-01 -3.145003189850E-01  1.833742866387E-01
C24 -1.838222681303E-01  1.854996810150E-01  3.166257133613E-01
H25 -1.141518556001E-01  2.121664622057E-01 -8.986053054510E-02
H26  1.141518556001E-01 -2.878335377943E-01 -4.101394694549E-01
H27  1.141518556001E-01 -2.121664622057E-01  8.986053054510E-02
H28 -1.141518556001E-01  2.878335377943E-01  4.101394694549E-01
C29 -3.177214414848E-01  2.355455902156E-01 -2.618814478533E-01
C30  3.177214414848E-01 -2.644544097844E-01 -2.381185521467E-01
C31  3.177214414848E-01 -2.355455902156E-01  2.618814478533E-01
C32 -3.177214414848E-01  2.644544097844E-01  2.381185521467E-01
H33 -3.562018643832E-01  7.046580988494E-02 -2.325951066315E-01
H34  3.562018643832E-01 -4.295341901151E-01 -2.674048933685E-01
H35  3.562018643832E-01 -7.046580988494E-02  2.325951066315E-01
H36 -3.562018643832E-01  4.295341901151E-01  2.674048933685E-01
C37 -4.105803297901E-01  3.653048428857E-01 -3.824387371676E-01
C38  4.105803297901E-01 -1.346951571143E-01 -1.175612628324E-01
C39  4.105803297901E-01 -3.653048428857E-01  3.824387371676E-01
C40 -4.105803297901E-01  1.346951571143E-01  1.175612628324E-01
C41 -4.515455733421E-01 -2.881591545468E-01  4.628179252840E-01
C42  4.515455733421E-01  2.118408454532E-01  3.718207471599E-02
C43  4.515455733421E-01  2.881591545468E-01 -4.628179252840E-01
C44 -4.515455733421E-01 -2.118408454532E-01 -3.718207471599E-02
H45 -4.132119889384E-01 -1.226921827704E-01  4.328452631790E-01
H46  4.132119889384E-01  3.773078172296E-01  6.715473682097E-02
H47  4.132119889384E-01  1.226921827704E-01 -4.328452631790E-01
H48 -4.132119889384E-01 -3.773078172296E-01 -6.715473682097E-02


#===END

data_OPT_STEP_35

_symmetry_space_group_name_H-M 'P 1'
_cell_length_a      9.31750432
_cell_length_b      6.08594691
_cell_length_c      8.46574217
_cell_angle_alpha   90.000000
_cell_angle_beta  101.129890
_cell_angle_gamma   90.000000

loop_
_atom_site_label
_atom_site_fract_x
_atom_site_fract_y
_atom_site_fract_z
C1 -3.609727294791E-01 -4.181077514976E-01 -4.204019835680E-01
C2  3.609727294791E-01  8.189224850235E-02 -7.959801643202E-02
C3  3.609727294791E-01  4.181077514976E-01  4.204019835680E-01
C4 -3.609727294791E-01 -8.189224850235E-02  7.959801643202E-02
C5 -2.196850785452E-01 -3.428917278245E-01 -3.376859852204E-01
C6  2.196850785452E-01  1.571082721755E-01 -1.623140147796E-01
C7  2.196850785452E-01  3.428917278245E-01  3.376859852204E-01
C8 -2.196850785452E-01 -1.571082721755E-01  1.623140147796E-01
H9 -1.819458717184E-01 -1.774894275817E-01 -3.678458481946E-01
H10  1.819458717184E-01  3.225105724183E-01 -1.321541518054E-01
H11  1.819458717184E-01  1.774894275817E-01  3.678458481946E-01
H12 -1.819458717184E-01 -3.225105724183E-01  1.321541518054E-01
C13 -1.338877092134E-01 -4.720211675393E-01 -2.223805102102E-01
C14  1.338877092134E-01  2.797883246074E-02 -2.776194897898E-01
C15  1.338877092134E-01  4.720211675393E-01  2.223805102102E-01
C16 -1.338877092134E-01 -2.797883246074E-02  2.776194897898E-01
H17 -2.557905963235E-02 -4.104761221142E-01 -1.592094675041E-01
H18  2.557905963235E-02  8.952387788579E-02 -3.407905324959E-01
H19  2.557905963235E-02  4.104761221142E-01  1.592094675041E-01
H20 -2.557905963235E-02 -8.952387788579E-02  3.407905324959E-01
C21 -1.838017774676E-01  3.145102479421E-01 -1.833947765892E-01
C22  1.838017774676E-01 -1.854897520579E-01 -3.166052234108E-01
C23  1.838017774676E-01 -3.145102479421E-01  1.833947765892E-01
C24 -1.838017774676E-01  1.854897520579E-01  3.166052234108E-01
H25 -1.141380320484E-01  2.121429814688E-01 -8.989572395262E-02
H26  1.141380320484E-01 -2.878570185312E-01 -4.101042760474E-01
H27  1.141380320484E-01 -2.121429814688E-01  8.989572395262E-02
H28 -1.141380320484E-01  2.878570185312E-01  4.101042760474E-01
C29 -3.177032632963E-01  2.355580879956E-01 -2.618893777748E-01
C30  3.177032632963E-01 -2.644419120044E-01 -2.381106222252E-01
C31  3.177032632963E-01 -2.355580879956E-01  2.618893777748E-01
C32 -3.177032632963E-01  2.644419120044E-01  2.381106222252E-01
H33 -3.561697375536E-01  7.047314630811E-02 -2.325993717564E-01
H34  3.561697375536E-01 -4.295268536919E-01 -2.674006282436E-01
H35  3.561697375536E-01 -7.047314630811E-02  2.325993717564E-01
H36 -3.561697375536E-01  4.295268536919E-01  2.674006282436E-01
C37 -4.105729418105E-01  3.653065260074E-01 -3.824423004360E-01
C38  4.105729418105E-01 -1.346934739926E-01 -1.175576995640E-01
C39  4.105729418105E-01 -3.653065260074E-01  3.824423004360E-01
C40 -4.105729418105E-01  1.346934739926E-01  1.175576995640E-01
C41 -4.515526286038E-01 -2.881622657364E-01  4.628025503820E-01
C42  4.515526286038E-01  2.118377342636E-01  3.719744961804E-02
C43  4.515526286038E-01  2.881622657364E-01 -4.628025503820E-01
C44 -4.515526286038E-01 -2.118377342636E-01 -3.719744961804E-02
H45 -4.132240804169E-01 -1.226983549473E-01  4.328194671723E-01
H46  4.132240804169E-01  3.773016450527E-01  6.718053282774E-02
H47  4.132240804169E-01  1.226983549473E-01 -4.328194671723E-01
H48 -4.132240804169E-01 -3.773016450527E-01 -6.718053282774E-02


#===END

data_OPT_STEP_36

_symmetry_space_group_name_H-M 'P 1'
_cell_length_a      9.31804621
_cell_length_b      6.08570715
_cell_length_c      8.46529638
_cell_angle_alpha   90.000000
_cell_angle_beta  101.133142
_cell_angle_gamma   90.000000

loop_
_atom_site_label
_atom_site_fract_x
_atom_site_fract_y
_atom_site_fract_z
C1 -3.609751301911E-01 -4.181042023509E-01 -4.204051506858E-01
C2  3.609751301911E-01  8.189579764914E-02 -7.959484931418E-02
C3  3.609751301911E-01  4.181042023509E-01  4.204051506858E-01
C4 -3.609751301911E-01 -8.189579764914E-02  7.959484931418E-02
C5 -2.196869688673E-01 -3.428879426351E-01 -3.376982747377E-01
C6  2.196869688673E-01  1.571120573649E-01 -1.623017252623E-01
C7  2.196869688673E-01  3.428879426351E-01  3.376982747377E-01
C8 -2.196869688673E-01 -1.571120573649E-01  1.623017252623E-01
H9 -1.819598932676E-01 -1.774820858756E-01 -3.678757336412E-01
H10  1.819598932676E-01  3.225179141244E-01 -1.321242663588E-01
H11  1.819598932676E-01  1.774820858756E-01  3.678757336412E-01
H12 -1.819598932676E-01 -3.225179141244E-01  1.321242663588E-01
C13 -1.338799425268E-01 -4.720176420694E-01 -2.223895532286E-01
C14  1.338799425268E-01  2.798235793063E-02 -2.776104467714E-01
C15  1.338799425268E-01  4.720176420694E-01  2.223895532286E-01
C16 -1.338799425268E-01 -2.798235793063E-02  2.776104467714E-01
H17 -2.557129252482E-02 -4.104607246692E-01 -1.592333924101E-01
H18  2.557129252482E-02  8.953927533076E-02 -3.407666075899E-01
H19  2.557129252482E-02  4.104607246692E-01  1.592333924101E-01
H20 -2.557129252482E-02 -8.953927533076E-02  3.407666075899E-01
C21 -1.837870951362E-01  3.145105399651E-01 -1.833925384519E-01
C22  1.837870951362E-01 -1.854894600349E-01 -3.166074615481E-01
C23  1.837870951362E-01 -3.145105399651E-01  1.833925384519E-01
C24 -1.837870951362E-01  1.854894600349E-01  3.166074615481E-01
H25 -1.141211501923E-01  2.121258379294E-01 -8.989631998392E-02
H26  1.141211501923E-01 -2.878741620706E-01 -4.101036800161E-01
H27  1.141211501923E-01 -2.121258379294E-01  8.989631998392E-02
H28 -1.141211501923E-01  2.878741620706E-01  4.101036800161E-01
C29 -3.176903202866E-01  2.355549063234E-01 -2.618792057350E-01
C30  3.176903202866E-01 -2.644450936766E-01 -2.381207942650E-01
C31  3.176903202866E-01 -2.355549063234E-01  2.618792057350E-01
C32 -3.176903202866E-01  2.644450936766E-01  2.381207942650E-01
H33 -3.561467921215E-01  7.046106943912E-02 -2.325817058441E-01
H34  3.561467921215E-01 -4.295389305609E-01 -2.674182941559E-01
H35  3.561467921215E-01 -7.046106943912E-02  2.325817058441E-01
H36 -3.561467921215E-01  4.295389305609E-01  2.674182941559E-01
C37 -4.105677892103E-01  3.653016960777E-01 -3.824377386895E-01
C38  4.105677892103E-01 -1.346983039223E-01 -1.175622613105E-01
C39  4.105677892103E-01 -3.653016960777E-01  3.824377386895E-01
C40 -4.105677892103E-01  1.346983039223E-01  1.175622613105E-01
C41 -4.515598804061E-01 -2.881524149463E-01  4.627951873237E-01
C42  4.515598804061E-01  2.118475850537E-01  3.720481267634E-02
C43  4.515598804061E-01  2.881524149463E-01 -4.627951873237E-01
C44 -4.515598804061E-01 -2.118475850537E-01 -3.720481267634E-02
H45 -4.132367788780E-01 -1.226806035227E-01  4.328062492535E-01
H46  4.132367788780E-01  3.773193964773E-01  6.719375074655E-02
H47  4.132367788780E-01  1.226806035227E-01 -4.328062492535E-01
H48 -4.132367788780E-01 -3.773193964773E-01 -6.719375074655E-02


#===END

data_OPT_STEP_37

_symmetry_space_group_name_H-M 'P 1'
_cell_length_a      9.31907560
_cell_length_b      6.08531789
_cell_length_c      8.46472851
_cell_angle_alpha   90.000000
_cell_angle_beta  101.137868
_cell_angle_gamma   90.000000

loop_
_atom_site_label
_atom_site_fract_x
_atom_site_fract_y
_atom_site_fract_z
C1 -3.609789388057E-01 -4.180984921754E-01 -4.204129880492E-01
C2  3.609789388057E-01  8.190150782459E-02 -7.958701195085E-02
C3  3.609789388057E-01  4.180984921754E-01  4.204129880492E-01
C4 -3.609789388057E-01 -8.190150782459E-02  7.958701195085E-02
C5 -2.196917347643E-01 -3.428797256658E-01 -3.377215015021E-01
C6  2.196917347643E-01  1.571202743342E-01 -1.622784984979E-01
C7  2.196917347643E-01  3.428797256658E-01  3.377215015021E-01
C8 -2.196917347643E-01 -1.571202743342E-01  1.622784984979E-01
H9 -1.819829263808E-01 -1.774640585530E-01 -3.679198418080E-01
H10  1.819829263808E-01  3.225359414470E-01 -1.320801581920E-01
H11  1.819829263808E-01  1.774640585530E-01  3.679198418080E-01
H12 -1.819829263808E-01 -3.225359414470E-01  1.320801581920E-01
C13 -1.338716571035E-01 -4.720152027597E-01 -2.224110314722E-01
C14  1.338716571035E-01  2.798479724033E-02 -2.775889685278E-01
C15  1.338716571035E-01  4.720152027597E-01  2.224110314722E-01
C16 -1.338716571035E-01 -2.798479724033E-02  2.775889685278E-01
H17 -2.556288632422E-02 -4.104543445761E-01 -1.592702282293E-01
H18  2.556288632422E-02  8.954565542391E-02 -3.407297717707E-01
H19  2.556288632422E-02  4.104543445761E-01  1.592702282293E-01
H20 -2.556288632422E-02 -8.954565542391E-02  3.407297717707E-01
C21 -1.837692278389E-01  3.145045382750E-01 -1.833976180599E-01
C22  1.837692278389E-01 -1.854954617250E-01 -3.166023819401E-01
C23  1.837692278389E-01 -3.145045382750E-01  1.833976180599E-01
C24 -1.837692278389E-01  1.854954617250E-01  3.166023819401E-01
H25 -1.140994174174E-01  2.121025520032E-01 -8.990222462633E-02
H26  1.140994174174E-01 -2.878974479968E-01 -4.100977753737E-01
H27  1.140994174174E-01 -2.121025520032E-01  8.990222462633E-02
H28 -1.140994174174E-01  2.878974479968E-01  4.100977753737E-01
C29 -3.176728353945E-01  2.355470845133E-01 -2.618714484478E-01
C30  3.176728353945E-01 -2.644529154867E-01 -2.381285515522E-01
C31  3.176728353945E-01 -2.355470845133E-01  2.618714484478E-01
C32 -3.176728353945E-01  2.644529154867E-01  2.381285515522E-01
H33 -3.561188781644E-01  7.044404230100E-02 -2.325634145495E-01
H34  3.561188781644E-01 -4.295559576990E-01 -2.674365854505E-01
H35  3.561188781644E-01 -7.044404230100E-02  2.325634145495E-01
H36 -3.561188781644E-01  4.295559576990E-01  2.674365854505E-01
C37 -4.105595161292E-01  3.652968778268E-01 -3.824334939468E-01
C38  4.105595161292E-01 -1.347031221732E-01 -1.175665060532E-01
C39  4.105595161292E-01 -3.652968778268E-01  3.824334939468E-01
C40 -4.105595161292E-01  1.347031221732E-01  1.175665060532E-01
C41 -4.515723044737E-01 -2.881412736299E-01  4.627839136106E-01
C42  4.515723044737E-01  2.118587263701E-01  3.721608638943E-02
C43  4.515723044737E-01  2.881412736299E-01 -4.627839136106E-01
C44 -4.515723044737E-01 -2.118587263701E-01 -3.721608638943E-02
H45 -4.132594994794E-01 -1.226591178196E-01  4.327843172297E-01
H46  4.132594994794E-01  3.773408821804E-01  6.721568277025E-02
H47  4.132594994794E-01  1.226591178196E-01 -4.327843172297E-01
H48 -4.132594994794E-01 -3.773408821804E-01 -6.721568277025E-02


#===END

data_OPT_STEP_38

_symmetry_space_group_name_H-M 'P 1'
_cell_length_a      9.31669448
_cell_length_b      6.09484667
_cell_length_c      8.44245557
_cell_angle_alpha   90.000000
_cell_angle_beta  101.017859
_cell_angle_gamma   90.000000

loop_
_atom_site_label
_atom_site_fract_x
_atom_site_fract_y
_atom_site_fract_z
C1 -3.610228569300E-01 -4.182080634416E-01 -4.204574126144E-01
C2  3.610228569300E-01  8.179193655839E-02 -7.954258738560E-02
C3  3.610228569300E-01  4.182080634416E-01  4.204574126144E-01
C4 -3.610228569300E-01 -8.179193655839E-02  7.954258738560E-02
C5 -2.197627855642E-01 -3.431222015905E-01 -3.378357093290E-01
C6  2.197627855642E-01  1.568777984095E-01 -1.621642906710E-01
C7  2.197627855642E-01  3.431222015905E-01  3.378357093290E-01
C8 -2.197627855642E-01 -1.568777984095E-01  1.621642906710E-01
H9 -1.820958262802E-01 -1.779053256942E-01 -3.681097643909E-01
H10  1.820958262802E-01  3.220946743058E-01 -1.318902356091E-01
H11  1.820958262802E-01  1.779053256942E-01  3.681097643909E-01
H12 -1.820958262802E-01 -3.220946743058E-01  1.318902356091E-01
C13 -1.338954520326E-01 -4.722065796593E-01 -2.225679473329E-01
C14  1.338954520326E-01  2.779342034068E-02 -2.774320526671E-01
C15  1.338954520326E-01  4.722065796593E-01  2.225679473329E-01
C16 -1.338954520326E-01 -2.779342034068E-02  2.774320526671E-01
H17 -2.560456880301E-02 -4.107792736416E-01 -1.594814285934E-01
H18  2.560456880301E-02  8.922072635840E-02 -3.405185714066E-01
H19  2.560456880301E-02  4.107792736416E-01  1.594814285934E-01
H20 -2.560456880301E-02 -8.922072635840E-02  3.405185714066E-01
C21 -1.837354022263E-01  3.145387736152E-01 -1.835194085972E-01
C22  1.837354022263E-01 -1.854612263848E-01 -3.164805914028E-01
C23  1.837354022263E-01 -3.145387736152E-01  1.835194085972E-01
C24 -1.837354022263E-01  1.854612263848E-01  3.164805914028E-01
H25 -1.140816627370E-01  2.122534957886E-01 -8.997119497130E-02
H26  1.140816627370E-01 -2.877465042114E-01 -4.100288050287E-01
H27  1.140816627370E-01 -2.122534957886E-01  8.997119497130E-02
H28 -1.140816627370E-01  2.877465042114E-01  4.100288050287E-01
C29 -3.175816608991E-01  2.356885877953E-01 -2.619841941049E-01
C30  3.175816608991E-01 -2.643114122047E-01 -2.380158058951E-01
C31  3.175816608991E-01 -2.356885877953E-01  2.619841941049E-01
C32 -3.175816608991E-01  2.643114122047E-01  2.380158058951E-01
H33 -3.559770956204E-01  7.073868540673E-02 -2.326785101642E-01
H34  3.559770956204E-01 -4.292613145933E-01 -2.673214898358E-01
H35  3.559770956204E-01 -7.073868540673E-02  2.326785101642E-01
H36 -3.559770956204E-01  4.292613145933E-01  2.673214898358E-01
C37 -4.105125780857E-01  3.653791889022E-01 -3.824914448610E-01
C38  4.105125780857E-01 -1.346208110978E-01 -1.175085551390E-01
C39  4.105125780857E-01 -3.653791889022E-01  3.824914448610E-01
C40 -4.105125780857E-01  1.346208110978E-01  1.175085551390E-01
C41 -4.516688415375E-01 -2.883186669958E-01  4.627968532140E-01
C42  4.516688415375E-01  2.116813330042E-01  3.720314678605E-02
C43  4.516688415375E-01  2.883186669958E-01 -4.627968532140E-01
C44 -4.516688415375E-01 -2.116813330042E-01 -3.720314678605E-02
H45 -4.134076648799E-01 -1.230015864327E-01  4.327571722065E-01
H46  4.134076648799E-01  3.769984135673E-01  6.724282779347E-02
H47  4.134076648799E-01  1.230015864327E-01 -4.327571722065E-01
H48 -4.134076648799E-01 -3.769984135673E-01 -6.724282779347E-02


#===END

data_OPT_STEP_39

_symmetry_space_group_name_H-M 'P 1'
_cell_length_a      9.31638831
_cell_length_b      6.09502973
_cell_length_c      8.44239995
_cell_angle_alpha   90.000000
_cell_angle_beta  101.019853
_cell_angle_gamma   90.000000

loop_
_atom_site_label
_atom_site_fract_x
_atom_site_fract_y
_atom_site_fract_z
C1 -3.610230051444E-01 -4.182028361581E-01 -4.204454176175E-01
C2  3.610230051444E-01  8.179716384186E-02 -7.955458238254E-02
C3  3.610230051444E-01  4.182028361581E-01  4.204454176175E-01
C4 -3.610230051444E-01 -8.179716384186E-02  7.955458238254E-02
C5 -2.197590729535E-01 -3.431251534526E-01 -3.378196858316E-01
C6  2.197590729535E-01  1.568748465474E-01 -1.621803141684E-01
C7  2.197590729535E-01  3.431251534526E-01  3.378196858316E-01
C8 -2.197590729535E-01 -1.568748465474E-01  1.621803141684E-01
H9 -1.820713541043E-01 -1.779144978678E-01 -3.680809790425E-01
H10  1.820713541043E-01  3.220855021322E-01 -1.319190209575E-01
H11  1.820713541043E-01  1.779144978678E-01  3.680809790425E-01
H12 -1.820713541043E-01 -3.220855021322E-01  1.319190209575E-01
C13 -1.338944297147E-01 -4.722176501746E-01 -2.225572029816E-01
C14  1.338944297147E-01  2.778234982542E-02 -2.774427970184E-01
C15  1.338944297147E-01  4.722176501746E-01  2.225572029816E-01
C16 -1.338944297147E-01 -2.778234982542E-02  2.774427970184E-01
H17 -2.559329099741E-02 -4.108054317907E-01 -1.594710952670E-01
H18  2.559329099741E-02  8.919456820928E-02 -3.405289047330E-01
H19  2.559329099741E-02  4.108054317907E-01  1.594710952670E-01
H20 -2.559329099741E-02 -8.919456820928E-02  3.405289047330E-01
C21 -1.837380244385E-01  3.145306152203E-01 -1.835041350800E-01
C22  1.837380244385E-01 -1.854693847797E-01 -3.164958649200E-01
C23  1.837380244385E-01 -3.145306152203E-01  1.835041350800E-01
C24 -1.837380244385E-01  1.854693847797E-01  3.164958649200E-01
H25 -1.140641177335E-01  2.122312562269E-01 -8.997424069078E-02
H26  1.140641177335E-01 -2.877687437731E-01 -4.100257593092E-01
H27  1.140641177335E-01 -2.122312562269E-01  8.997424069078E-02
H28 -1.140641177335E-01  2.877687437731E-01  4.100257593092E-01
C29 -3.175899196361E-01  2.356941121338E-01 -2.619697559290E-01
C30  3.175899196361E-01 -2.643058878662E-01 -2.380302440710E-01
C31  3.175899196361E-01 -2.356941121338E-01  2.619697559290E-01
C32 -3.175899196361E-01  2.643058878662E-01  2.380302440710E-01
H33 -3.559908545290E-01  7.075050435065E-02 -2.326707453992E-01
H34  3.559908545290E-01 -4.292494956494E-01 -2.673292546008E-01
H35  3.559908545290E-01 -7.075050435065E-02  2.326707453992E-01
H36 -3.559908545290E-01  4.292494956494E-01  2.673292546008E-01
C37 -4.105161580067E-01  3.653853270541E-01 -3.824837377766E-01
C38  4.105161580067E-01 -1.346146729459E-01 -1.175162622234E-01
C39  4.105161580067E-01 -3.653853270541E-01  3.824837377766E-01
C40 -4.105161580067E-01  1.346146729459E-01  1.175162622234E-01
C41 -4.516634554341E-01 -2.883246921554E-01  4.627955916233E-01
C42  4.516634554341E-01  2.116753078446E-01  3.720440837672E-02
C43  4.516634554341E-01  2.883246921554E-01 -4.627955916233E-01
C44 -4.516634554341E-01 -2.116753078446E-01 -3.720440837672E-02
H45 -4.133991609096E-01 -1.230238313886E-01  4.327514197391E-01
H46  4.133991609096E-01  3.769761686114E-01  6.724858026091E-02
H47  4.133991609096E-01  1.230238313886E-01 -4.327514197391E-01
H48 -4.133991609096E-01 -3.769761686114E-01 -6.724858026091E-02


#===END

data_OPT_STEP_40

_symmetry_space_group_name_H-M 'P 1'
_cell_length_a      9.31704860
_cell_length_b      6.09401174
_cell_length_c      8.44427678
_cell_angle_alpha   90.000000
_cell_angle_beta  101.030187
_cell_angle_gamma   90.000000

loop_
_atom_site_label
_atom_site_fract_x
_atom_site_fract_y
_atom_site_fract_z
C1 -3.610206875322E-01 -4.181919707695E-01 -4.204533213161E-01
C2  3.610206875322E-01  8.180802923050E-02 -7.954667868393E-02
C3  3.610206875322E-01  4.181919707695E-01  4.204533213161E-01
C4 -3.610206875322E-01 -8.180802923050E-02  7.954667868393E-02
C5 -2.197543366065E-01 -3.431026285550E-01 -3.378357917899E-01
C6  2.197543366065E-01  1.568973714450E-01 -1.621642082101E-01
C7  2.197543366065E-01  3.431026285550E-01  3.378357917899E-01
C8 -2.197543366065E-01 -1.568973714450E-01  1.621642082101E-01
H9 -1.820595403388E-01 -1.778809553628E-01 -3.681136432453E-01
H10  1.820595403388E-01  3.221190446372E-01 -1.318863567547E-01
H11  1.820595403388E-01  1.778809553628E-01  3.681136432453E-01
H12 -1.820595403388E-01 -3.221190446372E-01  1.318863567547E-01
C13 -1.338946045743E-01 -4.721923216883E-01 -2.225619369204E-01
C14  1.338946045743E-01  2.780767831173E-02 -2.774380630796E-01
C15  1.338946045743E-01  4.721923216883E-01  2.225619369204E-01
C16 -1.338946045743E-01 -2.780767831173E-02  2.774380630796E-01
H17 -2.558896100163E-02 -4.107732985760E-01 -1.594901826890E-01
H18  2.558896100163E-02  8.922670142399E-02 -3.405098173110E-01
H19  2.558896100163E-02  4.107732985760E-01  1.594901826890E-01
H20 -2.558896100163E-02 -8.922670142399E-02  3.405098173110E-01
C21 -1.837422777628E-01  3.145374330203E-01 -1.834956737607E-01
C22  1.837422777628E-01 -1.854625669797E-01 -3.165043262393E-01
C23  1.837422777628E-01 -3.145374330203E-01  1.834956737607E-01
C24 -1.837422777628E-01  1.854625669797E-01  3.165043262393E-01
H25 -1.140697349171E-01  2.122321983714E-01 -8.996351066474E-02
H26  1.140697349171E-01 -2.877678016286E-01 -4.100364893353E-01
H27  1.140697349171E-01 -2.122321983714E-01  8.996351066474E-02
H28 -1.140697349171E-01  2.877678016286E-01  4.100364893353E-01
C29 -3.175967852280E-01  2.356874990732E-01 -2.619539529096E-01
C30  3.175967852280E-01 -2.643125009268E-01 -2.380460470904E-01
C31  3.175967852280E-01 -2.356874990732E-01  2.619539529096E-01
C32 -3.175967852280E-01  2.643125009268E-01  2.380460470904E-01
H33 -3.559995183825E-01  7.072856771901E-02 -2.326462075079E-01
H34  3.559995183825E-01 -4.292714322810E-01 -2.673537924921E-01
H35  3.559995183825E-01 -7.072856771901E-02  2.326462075079E-01
H36 -3.559995183825E-01  4.292714322810E-01  2.673537924921E-01
C37 -4.105195062778E-01  3.653809136116E-01 -3.824760141856E-01
C38  4.105195062778E-01 -1.346190863884E-01 -1.175239858144E-01
C39  4.105195062778E-01 -3.653809136116E-01  3.824760141856E-01
C40 -4.105195062778E-01  1.346190863884E-01  1.175239858144E-01
C41 -4.516567060791E-01 -2.883104124817E-01  4.627794301483E-01
C42  4.516567060791E-01  2.116895875183E-01  3.722056985170E-02
C43  4.516567060791E-01  2.883104124817E-01 -4.627794301483E-01
C44 -4.516567060791E-01 -2.116895875183E-01 -3.722056985170E-02
H45 -4.133906466541E-01 -1.229944051083E-01  4.327281807350E-01
H46  4.133906466541E-01  3.770055948917E-01  6.727181926496E-02
H47  4.133906466541E-01  1.229944051083E-01 -4.327281807350E-01
H48 -4.133906466541E-01 -3.770055948917E-01 -6.727181926496E-02


#===END

data_OPT_STEP_41

_symmetry_space_group_name_H-M 'P 1'
_cell_length_a      9.31726921
_cell_length_b      6.09382153
_cell_length_c      8.44469667
_cell_angle_alpha   90.000000
_cell_angle_beta  101.032392
_cell_angle_gamma   90.000000

loop_
_atom_site_label
_atom_site_fract_x
_atom_site_fract_y
_atom_site_fract_z
C1 -3.610211668969E-01 -4.181902855132E-01 -4.204582373423E-01
C2  3.610211668969E-01  8.180971448681E-02 -7.954176265766E-02
C3  3.610211668969E-01  4.181902855132E-01  4.204582373423E-01
C4 -3.610211668969E-01 -8.180971448681E-02  7.954176265766E-02
C5 -2.197537431205E-01 -3.431007943624E-01 -3.378471798097E-01
C6  2.197537431205E-01  1.568992056376E-01 -1.621528201903E-01
C7  2.197537431205E-01  3.431007943624E-01  3.378471798097E-01
C8 -2.197537431205E-01 -1.568992056376E-01  1.621528201903E-01
H9 -1.820522951421E-01 -1.778809120127E-01 -3.681312860083E-01
H10  1.820522951421E-01  3.221190879873E-01 -1.318687139917E-01
H11  1.820522951421E-01  1.778809120127E-01  3.681312860083E-01
H12 -1.820522951421E-01 -3.221190879873E-01  1.318687139917E-01
C13 -1.338962756532E-01 -4.721904613096E-01 -2.225714522033E-01
C14  1.338962756532E-01  2.780953869041E-02 -2.774285477967E-01
C15  1.338962756532E-01  4.721904613096E-01  2.225714522033E-01
C16 -1.338962756532E-01 -2.780953869041E-02  2.774285477967E-01
H17 -2.558529771476E-02 -4.107821171715E-01 -1.595090590003E-01
H18  2.558529771476E-02  8.921788282853E-02 -3.404909409997E-01
H19  2.558529771476E-02  4.107821171715E-01  1.595090590003E-01
H20 -2.558529771476E-02 -8.921788282853E-02  3.404909409997E-01
C21 -1.837469656209E-01  3.145390935870E-01 -1.834974977831E-01
C22  1.837469656209E-01 -1.854609064130E-01 -3.165025022169E-01
C23  1.837469656209E-01 -3.145390935870E-01  1.834974977831E-01
C24 -1.837469656209E-01  1.854609064130E-01  3.165025022169E-01
H25 -1.140729321180E-01  2.122338968813E-01 -8.996639199740E-02
H26  1.140729321180E-01 -2.877661031187E-01 -4.100336080026E-01
H27  1.140729321180E-01 -2.122338968813E-01  8.996639199740E-02
H28 -1.140729321180E-01  2.877661031187E-01  4.100336080026E-01
C29 -3.176018268166E-01  2.356888963802E-01 -2.619507261314E-01
C30  3.176018268166E-01 -2.643111036198E-01 -2.380492738686E-01
C31  3.176018268166E-01 -2.356888963802E-01  2.619507261314E-01
C32 -3.176018268166E-01  2.643111036198E-01  2.380492738686E-01
H33 -3.560057265362E-01  7.072907961378E-02 -2.326399412740E-01
H34  3.560057265362E-01 -4.292709203862E-01 -2.673600587260E-01
H35  3.560057265362E-01 -7.072907961378E-02  2.326399412740E-01
H36 -3.560057265362E-01  4.292709203862E-01  2.673600587260E-01
C37 -4.105219923272E-01  3.653826390694E-01 -3.824739904484E-01
C38  4.105219923272E-01 -1.346173609306E-01 -1.175260095516E-01
C39  4.105219923272E-01 -3.653826390694E-01  3.824739904484E-01
C40 -4.105219923272E-01  1.346173609306E-01  1.175260095516E-01
C41 -4.516546346261E-01 -2.883098198585E-01  4.627728784814E-01
C42  4.516546346261E-01  2.116901801415E-01  3.722712151857E-02
C43  4.516546346261E-01  2.883098198585E-01 -4.627728784814E-01
C44 -4.516546346261E-01 -2.116901801415E-01 -3.722712151857E-02
H45 -4.133877806046E-01 -1.229939242137E-01  4.327174055527E-01
H46  4.133877806046E-01  3.770060757863E-01  6.728259444730E-02
H47  4.133877806046E-01  1.229939242137E-01 -4.327174055527E-01
H48 -4.133877806046E-01 -3.770060757863E-01 -6.728259444730E-02


#===END

data_OPT_STEP_42

_symmetry_space_group_name_H-M 'P 1'
_cell_length_a      9.31726921
_cell_length_b      6.09382153
_cell_length_c      8.44469667
_cell_angle_alpha   90.000000
_cell_angle_beta  101.032392
_cell_angle_gamma   90.000000

loop_
_atom_site_label
_atom_site_fract_x
_atom_site_fract_y
_atom_site_fract_z
C1 -3.610211668969E-01 -4.181902855132E-01 -4.204582373423E-01
C2  3.610211668969E-01  8.180971448681E-02 -7.954176265766E-02
C3  3.610211668969E-01  4.181902855132E-01  4.204582373423E-01
C4 -3.610211668969E-01 -8.180971448681E-02  7.954176265766E-02
C5 -2.197537431205E-01 -3.431007943624E-01 -3.378471798097E-01
C6  2.197537431205E-01  1.568992056376E-01 -1.621528201903E-01
C7  2.197537431205E-01  3.431007943624E-01  3.378471798097E-01
C8 -2.197537431205E-01 -1.568992056376E-01  1.621528201903E-01
H9 -1.820522951421E-01 -1.778809120127E-01 -3.681312860083E-01
H10  1.820522951421E-01  3.221190879873E-01 -1.318687139917E-01
H11  1.820522951421E-01  1.778809120127E-01  3.681312860083E-01
H12 -1.820522951421E-01 -3.221190879873E-01  1.318687139917E-01
C13 -1.338962756532E-01 -4.721904613096E-01 -2.225714522033E-01
C14  1.338962756532E-01  2.780953869041E-02 -2.774285477967E-01
C15  1.338962756532E-01  4.721904613096E-01  2.225714522033E-01
C16 -1.338962756532E-01 -2.780953869041E-02  2.774285477967E-01
H17 -2.558529771476E-02 -4.107821171715E-01 -1.595090590003E-01
H18  2.558529771476E-02  8.921788282853E-02 -3.404909409997E-01
H19  2.558529771476E-02  4.107821171715E-01  1.595090590003E-01
H20 -2.558529771476E-02 -8.921788282853E-02  3.404909409997E-01
C21 -1.837469656209E-01  3.145390935870E-01 -1.834974977831E-01
C22  1.837469656209E-01 -1.854609064130E-01 -3.165025022169E-01
C23  1.837469656209E-01 -3.145390935870E-01  1.834974977831E-01
C24 -1.837469656209E-01  1.854609064130E-01  3.165025022169E-01
H25 -1.140729321180E-01  2.122338968813E-01 -8.996639199740E-02
H26  1.140729321180E-01 -2.877661031187E-01 -4.100336080026E-01
H27  1.140729321180E-01 -2.122338968813E-01  8.996639199740E-02
H28 -1.140729321180E-01  2.877661031187E-01  4.100336080026E-01
C29 -3.176018268166E-01  2.356888963802E-01 -2.619507261314E-01
C30  3.176018268166E-01 -2.643111036198E-01 -2.380492738686E-01
C31  3.176018268166E-01 -2.356888963802E-01  2.619507261314E-01
C32 -3.176018268166E-01  2.643111036198E-01  2.380492738686E-01
H33 -3.560057265362E-01  7.072907961378E-02 -2.326399412740E-01
H34  3.560057265362E-01 -4.292709203862E-01 -2.673600587260E-01
H35  3.560057265362E-01 -7.072907961378E-02  2.326399412740E-01
H36 -3.560057265362E-01  4.292709203862E-01  2.673600587260E-01
C37 -4.105219923272E-01  3.653826390694E-01 -3.824739904484E-01
C38  4.105219923272E-01 -1.346173609306E-01 -1.175260095516E-01
C39  4.105219923272E-01 -3.653826390694E-01  3.824739904484E-01
C40 -4.105219923272E-01  1.346173609306E-01  1.175260095516E-01
C41 -4.516546346261E-01 -2.883098198585E-01  4.627728784814E-01
C42  4.516546346261E-01  2.116901801415E-01  3.722712151857E-02
C43  4.516546346261E-01  2.883098198585E-01 -4.627728784814E-01
C44 -4.516546346261E-01 -2.116901801415E-01 -3.722712151857E-02
H45 -4.133877806046E-01 -1.229939242137E-01  4.327174055527E-01
H46  4.133877806046E-01  3.770060757863E-01  6.728259444730E-02
H47  4.133877806046E-01  1.229939242137E-01 -4.327174055527E-01
H48 -4.133877806046E-01 -3.770060757863E-01 -6.728259444730E-02


#===END
