###############################################################################
#
#                    CRYSTAL17 CIF FILE
#
###############################################################################

data_OPT_STEP_1

_symmetry_space_group_name_H-M 'P 1'
_cell_length_a     17.97300000
_cell_length_b      7.35200000
_cell_length_c      6.24500000
_cell_angle_alpha   90.000000
_cell_angle_beta   90.646004
_cell_angle_gamma   90.000000

loop_
_atom_site_label
_atom_site_fract_x
_atom_site_fract_y
_atom_site_fract_z
C1  1.583400000000E-01 -3.951000000000E-01  4.904000000000E-01
C2 -1.583400000000E-01  1.049000000000E-01  9.600000000000E-03
C3 -1.583400000000E-01  3.951000000000E-01 -4.904000000000E-01
C4  1.583400000000E-01 -1.049000000000E-01 -9.600000000000E-03
H5  1.707000000000E-01 -3.203000000000E-01 -3.904000000000E-01
H6 -1.707000000000E-01  1.797000000000E-01 -1.096000000000E-01
H7 -1.707000000000E-01  3.203000000000E-01  3.904000000000E-01
H8  1.707000000000E-01 -1.797000000000E-01  1.096000000000E-01
C9  8.549000000000E-02 -3.979000000000E-01  4.133000000000E-01
C10 -8.549000000000E-02  1.021000000000E-01  8.670000000000E-02
C11 -8.549000000000E-02  3.979000000000E-01 -4.133000000000E-01
C12  8.549000000000E-02 -1.021000000000E-01 -8.670000000000E-02
H13  4.860000000000E-02 -3.260000000000E-01  4.807000000000E-01
H14 -4.860000000000E-02  1.740000000000E-01  1.930000000000E-02
H15 -4.860000000000E-02  3.260000000000E-01 -4.807000000000E-01
H16  4.860000000000E-02 -1.740000000000E-01 -1.930000000000E-02
C17  6.641000000000E-02  4.950000000000E-01  2.390000000000E-01
C18 -6.641000000000E-02 -5.000000000000E-03  2.610000000000E-01
C19 -6.641000000000E-02 -4.950000000000E-01 -2.390000000000E-01
C20  6.641000000000E-02  5.000000000000E-03 -2.610000000000E-01
H21  1.650000000000E-02  4.923000000000E-01  1.874000000000E-01
H22 -1.650000000000E-02 -7.700000000000E-03  3.126000000000E-01
H23 -1.650000000000E-02 -4.923000000000E-01 -1.874000000000E-01
H24  1.650000000000E-02  7.700000000000E-03 -3.126000000000E-01
C25  1.206900000000E-01  3.916000000000E-01  1.403000000000E-01
C26 -1.206900000000E-01 -1.084000000000E-01  3.597000000000E-01
C27 -1.206900000000E-01 -3.916000000000E-01 -1.403000000000E-01
C28  1.206900000000E-01  1.084000000000E-01 -3.597000000000E-01
H29  1.081000000000E-01  3.191000000000E-01  1.930000000000E-02
H30 -1.081000000000E-01 -1.809000000000E-01  4.807000000000E-01
H31 -1.081000000000E-01 -3.191000000000E-01 -1.930000000000E-02
H32  1.081000000000E-01  1.809000000000E-01 -4.807000000000E-01
C33  1.934800000000E-01  3.936000000000E-01  2.176000000000E-01
C34 -1.934800000000E-01 -1.064000000000E-01  2.824000000000E-01
C35 -1.934800000000E-01 -3.936000000000E-01 -2.176000000000E-01
C36  1.934800000000E-01  1.064000000000E-01 -2.824000000000E-01
H37  2.301000000000E-01  3.219000000000E-01  1.488000000000E-01
H38 -2.301000000000E-01 -1.781000000000E-01  3.512000000000E-01
H39 -2.301000000000E-01 -3.219000000000E-01 -1.488000000000E-01
H40  2.301000000000E-01  1.781000000000E-01 -3.512000000000E-01
C41  2.138000000000E-01  4.993000000000E-01  3.951000000000E-01
C42 -2.138000000000E-01 -7.000000000003E-04  1.049000000000E-01
C43 -2.138000000000E-01 -4.993000000000E-01 -3.951000000000E-01
C44  2.138000000000E-01  7.000000000001E-04 -1.049000000000E-01
C45  2.916900000000E-01 -4.970000000000E-01  4.786000000000E-01
C46 -2.916900000000E-01  3.000000000000E-03  2.140000000000E-02
C47 -2.916900000000E-01  4.970000000000E-01 -4.786000000000E-01
C48  2.916900000000E-01 -3.000000000000E-03 -2.140000000000E-02
C49  3.071800000000E-01 -4.350000000000E-01 -3.077000000000E-01
C50 -3.071800000000E-01  6.500000000000E-02 -1.923000000000E-01
C51 -3.071800000000E-01  4.350000000000E-01  3.077000000000E-01
C52  3.071800000000E-01 -6.500000000000E-02  1.923000000000E-01
H53  2.669000000000E-01 -4.069000000000E-01 -2.164000000000E-01
H54 -2.669000000000E-01  9.310000000000E-02 -2.836000000000E-01
H55 -2.669000000000E-01  4.069000000000E-01  2.164000000000E-01
H56  2.669000000000E-01 -9.310000000000E-02  2.836000000000E-01
C57  3.779800000000E-01 -4.155000000000E-01 -2.323000000000E-01
C58 -3.779800000000E-01  8.450000000000E-02 -2.677000000000E-01
C59 -3.779800000000E-01  4.155000000000E-01  2.323000000000E-01
C60  3.779800000000E-01 -8.450000000000E-02  2.677000000000E-01
H61  3.861000000000E-01 -3.738000000000E-01 -9.000000000000E-02
H62 -3.861000000000E-01  1.262000000000E-01 -4.100000000000E-01
H63 -3.861000000000E-01  3.738000000000E-01  9.000000000000E-02
H64  3.861000000000E-01 -1.262000000000E-01  4.100000000000E-01
C65  4.403600000000E-01 -4.567000000000E-01 -3.638000000000E-01
C66 -4.403600000000E-01  4.330000000000E-02 -1.362000000000E-01
C67 -4.403600000000E-01  4.567000000000E-01  3.638000000000E-01
C68  4.403600000000E-01 -4.330000000000E-02  1.362000000000E-01
C69  4.260400000000E-01  4.721800000000E-01  4.253000000000E-01
C70 -4.260400000000E-01 -2.782000000000E-02  7.470000000000E-02
C71 -4.260400000000E-01 -4.721800000000E-01 -4.253000000000E-01
C72  4.260400000000E-01  2.782000000000E-02 -7.470000000000E-02
C73  3.508200000000E-01  4.538000000000E-01  3.531000000000E-01
C74 -3.508200000000E-01 -4.620000000000E-02  1.469000000000E-01
C75 -3.508200000000E-01 -4.538000000000E-01 -3.531000000000E-01
C76  3.508200000000E-01  4.620000000000E-02 -1.469000000000E-01
H77  3.413000000000E-01  4.061000000000E-01  2.141000000000E-01
H78 -3.413000000000E-01 -9.390000000000E-02  2.859000000000E-01
H79 -3.413000000000E-01 -4.061000000000E-01 -2.141000000000E-01
H80  3.413000000000E-01  9.390000000000E-02 -2.859000000000E-01
C81 -4.864000000000E-01 -4.304000000000E-01 -2.944000000000E-01
C82  4.864000000000E-01  6.960000000000E-02 -2.056000000000E-01
C83  4.864000000000E-01  4.304000000000E-01  2.944000000000E-01
C84 -4.864000000000E-01 -6.960000000000E-02  2.056000000000E-01
H85 -4.773000000000E-01 -3.830000000000E-01 -1.550000000000E-01
H86  4.773000000000E-01  1.170000000000E-01 -3.450000000000E-01
H87  4.773000000000E-01  3.830000000000E-01  1.550000000000E-01
H88 -4.773000000000E-01 -1.170000000000E-01  3.450000000000E-01


#===END

data_OPT_STEP_2

_symmetry_space_group_name_H-M 'P 1'
_cell_length_a     17.97300000
_cell_length_b      7.35200000
_cell_length_c      6.24500000
_cell_angle_alpha   90.000000
_cell_angle_beta   90.646004
_cell_angle_gamma   90.000000

loop_
_atom_site_label
_atom_site_fract_x
_atom_site_fract_y
_atom_site_fract_z
C1  1.583400000000E-01 -3.951000000000E-01  4.904000000000E-01
C2 -1.583400000000E-01  1.049000000000E-01  9.600000000000E-03
C3 -1.583400000000E-01  3.951000000000E-01 -4.904000000000E-01
C4  1.583400000000E-01 -1.049000000000E-01 -9.600000000000E-03
H5  1.707000000000E-01 -3.203000000000E-01 -3.904000000000E-01
H6 -1.707000000000E-01  1.797000000000E-01 -1.096000000000E-01
H7 -1.707000000000E-01  3.203000000000E-01  3.904000000000E-01
H8  1.707000000000E-01 -1.797000000000E-01  1.096000000000E-01
C9  8.549000000000E-02 -3.979000000000E-01  4.133000000000E-01
C10 -8.549000000000E-02  1.021000000000E-01  8.670000000000E-02
C11 -8.549000000000E-02  3.979000000000E-01 -4.133000000000E-01
C12  8.549000000000E-02 -1.021000000000E-01 -8.670000000000E-02
H13  4.860000000000E-02 -3.260000000000E-01  4.807000000000E-01
H14 -4.860000000000E-02  1.740000000000E-01  1.930000000000E-02
H15 -4.860000000000E-02  3.260000000000E-01 -4.807000000000E-01
H16  4.860000000000E-02 -1.740000000000E-01 -1.930000000000E-02
C17  6.641000000000E-02  4.950000000000E-01  2.390000000000E-01
C18 -6.641000000000E-02 -5.000000000000E-03  2.610000000000E-01
C19 -6.641000000000E-02 -4.950000000000E-01 -2.390000000000E-01
C20  6.641000000000E-02  5.000000000000E-03 -2.610000000000E-01
H21  1.650000000000E-02  4.923000000000E-01  1.874000000000E-01
H22 -1.650000000000E-02 -7.700000000000E-03  3.126000000000E-01
H23 -1.650000000000E-02 -4.923000000000E-01 -1.874000000000E-01
H24  1.650000000000E-02  7.700000000000E-03 -3.126000000000E-01
C25  1.206900000000E-01  3.916000000000E-01  1.403000000000E-01
C26 -1.206900000000E-01 -1.084000000000E-01  3.597000000000E-01
C27 -1.206900000000E-01 -3.916000000000E-01 -1.403000000000E-01
C28  1.206900000000E-01  1.084000000000E-01 -3.597000000000E-01
H29  1.081000000000E-01  3.191000000000E-01  1.930000000000E-02
H30 -1.081000000000E-01 -1.809000000000E-01  4.807000000000E-01
H31 -1.081000000000E-01 -3.191000000000E-01 -1.930000000000E-02
H32  1.081000000000E-01  1.809000000000E-01 -4.807000000000E-01
C33  1.934800000000E-01  3.936000000000E-01  2.176000000000E-01
C34 -1.934800000000E-01 -1.064000000000E-01  2.824000000000E-01
C35 -1.934800000000E-01 -3.936000000000E-01 -2.176000000000E-01
C36  1.934800000000E-01  1.064000000000E-01 -2.824000000000E-01
H37  2.301000000000E-01  3.219000000000E-01  1.488000000000E-01
H38 -2.301000000000E-01 -1.781000000000E-01  3.512000000000E-01
H39 -2.301000000000E-01 -3.219000000000E-01 -1.488000000000E-01
H40  2.301000000000E-01  1.781000000000E-01 -3.512000000000E-01
C41  2.138000000000E-01  4.993000000000E-01  3.951000000000E-01
C42 -2.138000000000E-01 -7.000000000003E-04  1.049000000000E-01
C43 -2.138000000000E-01 -4.993000000000E-01 -3.951000000000E-01
C44  2.138000000000E-01  7.000000000001E-04 -1.049000000000E-01
C45  2.916900000000E-01 -4.970000000000E-01  4.786000000000E-01
C46 -2.916900000000E-01  3.000000000000E-03  2.140000000000E-02
C47 -2.916900000000E-01  4.970000000000E-01 -4.786000000000E-01
C48  2.916900000000E-01 -3.000000000000E-03 -2.140000000000E-02
C49  3.071800000000E-01 -4.350000000000E-01 -3.077000000000E-01
C50 -3.071800000000E-01  6.500000000000E-02 -1.923000000000E-01
C51 -3.071800000000E-01  4.350000000000E-01  3.077000000000E-01
C52  3.071800000000E-01 -6.500000000000E-02  1.923000000000E-01
H53  2.669000000000E-01 -4.069000000000E-01 -2.164000000000E-01
H54 -2.669000000000E-01  9.310000000000E-02 -2.836000000000E-01
H55 -2.669000000000E-01  4.069000000000E-01  2.164000000000E-01
H56  2.669000000000E-01 -9.310000000000E-02  2.836000000000E-01
C57  3.779800000000E-01 -4.155000000000E-01 -2.323000000000E-01
C58 -3.779800000000E-01  8.450000000000E-02 -2.677000000000E-01
C59 -3.779800000000E-01  4.155000000000E-01  2.323000000000E-01
C60  3.779800000000E-01 -8.450000000000E-02  2.677000000000E-01
H61  3.861000000000E-01 -3.738000000000E-01 -9.000000000000E-02
H62 -3.861000000000E-01  1.262000000000E-01 -4.100000000000E-01
H63 -3.861000000000E-01  3.738000000000E-01  9.000000000000E-02
H64  3.861000000000E-01 -1.262000000000E-01  4.100000000000E-01
C65  4.403600000000E-01 -4.567000000000E-01 -3.638000000000E-01
C66 -4.403600000000E-01  4.330000000000E-02 -1.362000000000E-01
C67 -4.403600000000E-01  4.567000000000E-01  3.638000000000E-01
C68  4.403600000000E-01 -4.330000000000E-02  1.362000000000E-01
C69  4.260400000000E-01  4.721800000000E-01  4.253000000000E-01
C70 -4.260400000000E-01 -2.782000000000E-02  7.470000000000E-02
C71 -4.260400000000E-01 -4.721800000000E-01 -4.253000000000E-01
C72  4.260400000000E-01  2.782000000000E-02 -7.470000000000E-02
C73  3.508200000000E-01  4.538000000000E-01  3.531000000000E-01
C74 -3.508200000000E-01 -4.620000000000E-02  1.469000000000E-01
C75 -3.508200000000E-01 -4.538000000000E-01 -3.531000000000E-01
C76  3.508200000000E-01  4.620000000000E-02 -1.469000000000E-01
H77  3.413000000000E-01  4.061000000000E-01  2.141000000000E-01
H78 -3.413000000000E-01 -9.390000000000E-02  2.859000000000E-01
H79 -3.413000000000E-01 -4.061000000000E-01 -2.141000000000E-01
H80  3.413000000000E-01  9.390000000000E-02 -2.859000000000E-01
C81 -4.864000000000E-01 -4.304000000000E-01 -2.944000000000E-01
C82  4.864000000000E-01  6.960000000000E-02 -2.056000000000E-01
C83  4.864000000000E-01  4.304000000000E-01  2.944000000000E-01
C84 -4.864000000000E-01 -6.960000000000E-02  2.056000000000E-01
H85 -4.773000000000E-01 -3.830000000000E-01 -1.550000000000E-01
H86  4.773000000000E-01  1.170000000000E-01 -3.450000000000E-01
H87  4.773000000000E-01  3.830000000000E-01  1.550000000000E-01
H88 -4.773000000000E-01 -1.170000000000E-01  3.450000000000E-01


#===END

data_OPT_STEP_3

_symmetry_space_group_name_H-M 'P 1'
_cell_length_a     18.02417667
_cell_length_b      7.34018333
_cell_length_c      6.26896877
_cell_angle_alpha   90.000000
_cell_angle_beta   90.504936
_cell_angle_gamma   90.000000

loop_
_atom_site_label
_atom_site_fract_x
_atom_site_fract_y
_atom_site_fract_z
C1  1.586449141566E-01 -3.966231870501E-01  4.919468946621E-01
C2 -1.586449141566E-01  1.033768129499E-01  8.053105337927E-03
C3 -1.586449141566E-01  3.966231870501E-01 -4.919468946621E-01
C4  1.586449141566E-01 -1.033768129499E-01 -8.053105337927E-03
H5  1.711782844091E-01 -3.184899807525E-01 -3.878975983992E-01
H6 -1.711782844091E-01  1.815100192475E-01 -1.121024016008E-01
H7 -1.711782844091E-01  3.184899807525E-01  3.878975983992E-01
H8  1.711782844091E-01 -1.815100192475E-01  1.121024016008E-01
C9  8.589086181410E-02 -3.996851905469E-01  4.148661048734E-01
C10 -8.589086181410E-02  1.003148094531E-01  8.513389512662E-02
C11 -8.589086181410E-02  3.996851905469E-01 -4.148661048734E-01
C12  8.589086181410E-02 -1.003148094531E-01 -8.513389512662E-02
H13  4.825404892202E-02 -3.256076871323E-01  4.831588449679E-01
H14 -4.825404892202E-02  1.743923128677E-01  1.684115503205E-02
H15 -4.825404892202E-02  3.256076871323E-01 -4.831588449679E-01
H16  4.825404892202E-02 -1.743923128677E-01 -1.684115503205E-02
C17  6.709202045962E-02  4.934505460965E-01  2.397024920929E-01
C18 -6.709202045962E-02 -6.549453903540E-03  2.602975079071E-01
C19 -6.709202045962E-02 -4.934505460965E-01 -2.397024920929E-01
C20  6.709202045962E-02  6.549453903540E-03 -2.602975079071E-01
H21  1.624923495255E-02  4.910978717377E-01  1.867862527267E-01
H22 -1.624923495255E-02 -8.902128262251E-03  3.132137472733E-01
H23 -1.624923495255E-02 -4.910978717377E-01 -1.867862527267E-01
H24  1.624923495255E-02  8.902128262251E-03 -3.132137472733E-01
C25  1.215442398320E-01  3.894702631219E-01  1.411706777390E-01
C26 -1.215442398320E-01 -1.105297368781E-01  3.588293222610E-01
C27 -1.215442398320E-01 -3.894702631219E-01 -1.411706777390E-01
C28  1.215442398320E-01  1.105297368781E-01 -3.588293222610E-01
H29  1.088728738701E-01  3.146100266694E-01  1.826437840503E-02
H30 -1.088728738701E-01 -1.853899733306E-01  4.817356215950E-01
H31 -1.088728738701E-01 -3.146100266694E-01 -1.826437840503E-02
H32  1.088728738701E-01  1.853899733306E-01 -4.817356215950E-01
C33  1.941296912229E-01  3.906251048043E-01  2.195186777488E-01
C34 -1.941296912229E-01 -1.093748951957E-01  2.804813222512E-01
C35 -1.941296912229E-01 -3.906251048043E-01 -2.195186777488E-01
C36  1.941296912229E-01  1.093748951957E-01 -2.804813222512E-01
H37  2.312301987887E-01  3.144479060068E-01  1.518770330176E-01
H38 -2.312301987887E-01 -1.855520939932E-01  3.481229669824E-01
H39 -2.312301987887E-01 -3.144479060068E-01 -1.518770330176E-01
H40  2.312301987887E-01  1.855520939932E-01 -3.481229669824E-01
C41  2.142070280696E-01  4.976625837474E-01  3.963314140210E-01
C42 -2.142070280696E-01 -2.337416252642E-03  1.036685859790E-01
C43 -2.142070280696E-01 -4.976625837474E-01 -3.963314140210E-01
C44  2.142070280696E-01  2.337416252642E-03 -1.036685859790E-01
C45  2.919516199128E-01 -4.975093983406E-01  4.791361792835E-01
C46 -2.919516199128E-01  2.490601659436E-03  2.086382071652E-02
C47 -2.919516199128E-01  4.975093983406E-01 -4.791361792835E-01
C48  2.919516199128E-01 -2.490601659436E-03 -2.086382071652E-02
C49  3.071870183174E-01 -4.336715299804E-01 -3.080898754348E-01
C50 -3.071870183174E-01  6.632847001961E-02 -1.919101245652E-01
C51 -3.071870183174E-01  4.336715299804E-01  3.080898754348E-01
C52  3.071870183174E-01 -6.632847001961E-02  1.919101245652E-01
H53  2.660415450380E-01 -4.053938031354E-01 -2.146994463071E-01
H54 -2.660415450380E-01  9.460619686459E-02 -2.853005536929E-01
H55 -2.660415450380E-01  4.053938031354E-01  2.146994463071E-01
H56  2.660415450380E-01 -9.460619686459E-02  2.853005536929E-01
C57  3.779656495815E-01 -4.137061972193E-01 -2.330577125494E-01
C58 -3.779656495814E-01  8.629380278075E-02 -2.669422874506E-01
C59 -3.779656495814E-01  4.137061972193E-01  2.330577125494E-01
C60  3.779656495814E-01 -8.629380278075E-02  2.669422874506E-01
H61  3.861985684887E-01 -3.719102919489E-01 -8.768151824385E-02
H62 -3.861985684887E-01  1.280897080511E-01 -4.123184817562E-01
H63 -3.861985684887E-01  3.719102919489E-01  8.768151824385E-02
H64  3.861985684887E-01 -1.280897080511E-01  4.123184817562E-01
C65  4.403366741594E-01 -4.554048093451E-01 -3.644172775773E-01
C66 -4.403366741594E-01  4.459519065494E-02 -1.355827224227E-01
C67 -4.403366741594E-01  4.554048093451E-01  3.644172775773E-01
C68  4.403366741594E-01 -4.459519065494E-02  1.355827224227E-01
C69  4.261709051037E-01  4.717507466311E-01  4.257295635999E-01
C70 -4.261709051037E-01 -2.824925336889E-02  7.427043640011E-02
C71 -4.261709051037E-01 -4.717507466311E-01 -4.257295635999E-01
C72  4.261709051037E-01  2.824925336889E-02 -7.427043640011E-02
C73  3.510996176868E-01  4.522093120122E-01  3.539995171661E-01
C74 -3.510996176868E-01 -4.779068798776E-02  1.460004828339E-01
C75 -3.510996176868E-01 -4.522093120122E-01 -3.539995171661E-01
C76  3.510996176868E-01  4.779068798776E-02 -1.460004828339E-01
H77  3.416813973037E-01  4.047167602917E-01  2.115841530969E-01
H78 -3.416813973037E-01 -9.528323970831E-02  2.884158469031E-01
H79 -3.416813973037E-01 -4.047167602917E-01 -2.115841530969E-01
H80  3.416813973037E-01  9.528323970831E-02 -2.884158469031E-01
C81 -4.865253510812E-01 -4.281311361219E-01 -2.954116468280E-01
C82  4.865253510812E-01  7.186886387814E-02 -2.045883531720E-01
C83  4.865253510812E-01  4.281311361219E-01  2.954116468280E-01
C84 -4.865253510812E-01 -7.186886387814E-02  2.045883531720E-01
H85 -4.773343182832E-01 -3.779548315457E-01 -1.540721494018E-01
H86  4.773343182832E-01  1.220451684543E-01 -3.459278505982E-01
H87  4.773343182832E-01  3.779548315457E-01  1.540721494018E-01
H88 -4.773343182832E-01 -1.220451684543E-01  3.459278505982E-01


#===END

data_OPT_STEP_4

_symmetry_space_group_name_H-M 'P 1'
_cell_length_a     18.08767394
_cell_length_b      7.39412781
_cell_length_c      6.29456808
_cell_angle_alpha   90.000000
_cell_angle_beta   90.475347
_cell_angle_gamma   90.000000

loop_
_atom_site_label
_atom_site_fract_x
_atom_site_fract_y
_atom_site_fract_z
C1  1.593062201845E-01 -3.917164846975E-01  4.892343259197E-01
C2 -1.593062201845E-01  1.082835153025E-01  1.076567408026E-02
C3 -1.593062201845E-01  3.917164846975E-01 -4.892343259197E-01
C4  1.593062201845E-01 -1.082835153025E-01 -1.076567408026E-02
H5  1.723747778514E-01 -3.059440836412E-01 -3.926877353949E-01
H6 -1.723747778514E-01  1.940559163588E-01 -1.073122646051E-01
H7 -1.723747778514E-01  3.059440836412E-01  3.926877353949E-01
H8  1.723747778514E-01 -1.940559163588E-01  1.073122646051E-01
C9  8.646053158663E-02 -3.968423563286E-01  4.136172567646E-01
C10 -8.646053158663E-02  1.031576436714E-01  8.638274323538E-02
C11 -8.646053158663E-02  3.968423563286E-01 -4.136172567646E-01
C12  8.646053158663E-02 -1.031576436714E-01 -8.638274323538E-02
H13  4.774448728137E-02 -3.210548674992E-01  4.835458506420E-01
H14 -4.774448728137E-02  1.789451325008E-01  1.645414935805E-02
H15 -4.774448728137E-02  3.210548674992E-01 -4.835458506420E-01
H16  4.774448728137E-02 -1.789451325008E-01 -1.645414935805E-02
C17  6.757157618979E-02  4.946194328727E-01  2.403686518710E-01
C18 -6.757157618979E-02 -5.380567127336E-03  2.596313481290E-01
C19 -6.757157618979E-02 -4.946194328727E-01 -2.403686518710E-01
C20  6.757157618979E-02  5.380567127336E-03 -2.596313481290E-01
H21  1.547209113114E-02  4.925293807992E-01  1.849431091083E-01
H22 -1.547209113114E-02 -7.470619200804E-03  3.150568908917E-01
H23 -1.547209113114E-02 -4.925293807992E-01 -1.849431091083E-01
H24  1.547209113114E-02  7.470619200804E-03 -3.150568908917E-01
C25  1.220758955369E-01  3.909457026150E-01  1.424438250088E-01
C26 -1.220758955369E-01 -1.090542973850E-01  3.575561749912E-01
C27 -1.220758955369E-01 -3.909457026150E-01 -1.424438250088E-01
C28  1.220758955369E-01  1.090542973850E-01 -3.575561749912E-01
H29  1.089676877731E-01  3.112244578795E-01  1.892100465539E-02
H30 -1.089676877731E-01 -1.887755421205E-01  4.810789953446E-01
H31 -1.089676877731E-01 -3.112244578795E-01 -1.892100465539E-02
H32  1.089676877731E-01  1.887755421205E-01 -4.810789953446E-01
C33  1.947626021322E-01  3.946057734659E-01  2.189765020447E-01
C34 -1.947626021322E-01 -1.053942265341E-01  2.810234979553E-01
C35 -1.947626021322E-01 -3.946057734659E-01 -2.189765020447E-01
C36  1.947626021322E-01  1.053942265341E-01 -2.810234979553E-01
H37  2.308759440662E-01  2.991408852993E-01  1.659863910978E-01
H38 -2.308759440662E-01 -2.008591147007E-01  3.340136089022E-01
H39 -2.308759440662E-01 -2.991408852993E-01 -1.659863910978E-01
H40  2.308759440662E-01  2.008591147007E-01 -3.340136089022E-01
C41  2.147950761028E-01 -4.978332897694E-01  3.947131882043E-01
C42 -2.147950761028E-01  2.166710230550E-03  1.052868117957E-01
C43 -2.147950761028E-01  4.978332897694E-01 -3.947131882043E-01
C44  2.147950761028E-01 -2.166710230550E-03 -1.052868117957E-01
C45  2.922662561438E-01 -4.954127622463E-01  4.786966097250E-01
C46 -2.922662561438E-01  4.587237753689E-03  2.130339027496E-02
C47 -2.922662561438E-01  4.954127622463E-01 -4.786966097250E-01
C48  2.922662561438E-01 -4.587237753690E-03 -2.130339027496E-02
C49  3.073958857753E-01 -4.350178103964E-01 -3.075805511153E-01
C50 -3.073958857753E-01  6.498218960356E-02 -1.924194488847E-01
C51 -3.073958857753E-01  4.350178103964E-01  3.075805511153E-01
C52  3.073958857753E-01 -6.498218960356E-02  1.924194488847E-01
H53  2.651807673135E-01 -4.120212033131E-01 -2.089420989465E-01
H54 -2.651807673135E-01  8.797879668694E-02 -2.910579010535E-01
H55 -2.651807673135E-01  4.120212033131E-01  2.089420989465E-01
H56  2.651807673135E-01 -8.797879668694E-02  2.910579010535E-01
C57  3.782248184218E-01 -4.125354120752E-01 -2.339706452085E-01
C58 -3.782248184218E-01  8.746458792480E-02 -2.660293547915E-01
C59 -3.782248184218E-01  4.125354120752E-01  2.339706452085E-01
C60  3.782248184218E-01 -8.746458792480E-02  2.660293547915E-01
H61  3.869479737724E-01 -3.709743425456E-01 -8.425204619772E-02
H62 -3.869479737724E-01  1.290256574544E-01 -4.157479538023E-01
H63 -3.869479737724E-01  3.709743425456E-01  8.425204619772E-02
H64  3.869479737724E-01 -1.290256574544E-01  4.157479538023E-01
C65  4.404484242920E-01 -4.568468220542E-01 -3.640755431325E-01
C66 -4.404484242920E-01  4.315317794580E-02 -1.359244568675E-01
C67 -4.404484242920E-01  4.568468220542E-01  3.640755431325E-01
C68  4.404484242920E-01 -4.315317794580E-02  1.359244568675E-01
C69  4.262482752912E-01  4.712688078641E-01  4.263049020009E-01
C70 -4.262482752912E-01 -2.873119213590E-02  7.369509799911E-02
C71 -4.262482752912E-01 -4.712688078641E-01 -4.263049020009E-01
C72  4.262482752912E-01  2.873119213590E-02 -7.369509799911E-02
C73  3.512894922215E-01  4.527319191028E-01  3.543117352090E-01
C74 -3.512894922215E-01 -4.726808089725E-02  1.456882647910E-01
C75 -3.512894922215E-01 -4.527319191028E-01 -3.543117352090E-01
C76  3.512894922215E-01  4.726808089725E-02 -1.456882647910E-01
H77  3.419542007245E-01  4.071409774867E-01  2.064042638711E-01
H78 -3.419542007245E-01 -9.285902251329E-02  2.935957361289E-01
H79 -3.419542007245E-01 -4.071409774867E-01 -2.064042638711E-01
H80  3.419542007245E-01  9.285902251329E-02 -2.935957361289E-01
C81 -4.864723243605E-01 -4.306529383933E-01 -2.945449239545E-01
C82  4.864723243605E-01  6.934706160674E-02 -2.054550760455E-01
C83  4.864723243605E-01  4.306529383933E-01  2.945449239545E-01
C84 -4.864723243605E-01 -6.934706160674E-02  2.054550760455E-01
H85 -4.770930888008E-01 -3.694030669173E-01 -1.539787816803E-01
H86  4.770930888008E-01  1.305969330827E-01 -3.460212183197E-01
H87  4.770930888008E-01  3.694030669173E-01  1.539787816803E-01
H88 -4.770930888008E-01 -1.305969330827E-01  3.460212183197E-01


#===END

data_OPT_STEP_5

_symmetry_space_group_name_H-M 'P 1'
_cell_length_a     18.11907239
_cell_length_b      7.50830805
_cell_length_c      6.26430624
_cell_angle_alpha   90.000000
_cell_angle_beta   90.277884
_cell_angle_gamma   90.000000

loop_
_atom_site_label
_atom_site_fract_x
_atom_site_fract_y
_atom_site_fract_z
C1  1.605767877044E-01 -3.843385440980E-01  4.830755661767E-01
C2 -1.605767877044E-01  1.156614559020E-01  1.692443382334E-02
C3 -1.605767877044E-01  3.843385440980E-01 -4.830755661767E-01
C4  1.605767877044E-01 -1.156614559020E-01 -1.692443382334E-02
H5  1.750625542186E-01 -2.852680988536E-01 -4.080208288744E-01
H6 -1.750625542186E-01  2.147319011464E-01 -9.197917112557E-02
H7 -1.750625542186E-01  2.852680988536E-01  4.080208288744E-01
H8  1.750625542186E-01 -2.147319011464E-01  9.197917112557E-02
C9  8.751613751916E-02 -3.914490454321E-01  4.094030724895E-01
C10 -8.751613751916E-02  1.085509545679E-01  9.059692751054E-02
C11 -8.751613751916E-02  3.914490454321E-01 -4.094030724895E-01
C12  8.751613751916E-02 -1.085509545679E-01 -9.059692751054E-02
H13  4.798279279011E-02 -3.154031859817E-01  4.818828718599E-01
H14 -4.798279279011E-02  1.845968140183E-01  1.811712814007E-02
H15 -4.798279279011E-02  3.154031859817E-01 -4.818828718599E-01
H16  4.798279279011E-02 -1.845968140183E-01 -1.811712814007E-02
C17  6.830147014737E-02  4.979452490733E-01  2.382520031387E-01
C18 -6.830147014737E-02 -2.054750926694E-03  2.617479968613E-01
C19 -6.830147014737E-02 -4.979452490733E-01 -2.382520031387E-01
C20  6.830147014737E-02  2.054750926693E-03 -2.617479968613E-01
H21  1.509074825372E-02  4.950931028622E-01  1.826450631370E-01
H22 -1.509074825372E-02 -4.906897137784E-03  3.173549368630E-01
H23 -1.509074825372E-02 -4.950931028622E-01 -1.826450631370E-01
H24  1.509074825372E-02  4.906897137784E-03 -3.173549368630E-01
C25  1.220215268911E-01  3.874433193679E-01  1.467718248629E-01
C26 -1.220215268911E-01 -1.125566806321E-01  3.532281751371E-01
C27 -1.220215268911E-01 -3.874433193679E-01 -1.467718248629E-01
C28  1.220215268911E-01  1.125566806321E-01 -3.532281751371E-01
H29  1.075179019252E-01  2.948793514226E-01  3.125593350858E-02
H30 -1.075179019252E-01 -2.051206485774E-01  4.687440664914E-01
H31 -1.075179019252E-01 -2.948793514226E-01 -3.125593350858E-02
H32  1.075179019252E-01  2.051206485774E-01 -4.687440664914E-01
C33  1.937192348088E-01  3.822672757168E-01  2.317443058707E-01
C34 -1.937192348088E-01 -1.177327242832E-01  2.682556941293E-01
C35 -1.937192348088E-01 -3.822672757168E-01 -2.317443058707E-01
C36  1.937192348088E-01  1.177327242832E-01 -2.682556941293E-01
H37  2.278447462672E-01  2.654818656582E-01  1.974915292620E-01
H38 -2.278447462672E-01 -2.345181343418E-01  3.025084707380E-01
H39 -2.278447462672E-01 -2.654818656582E-01 -1.974915292620E-01
H40  2.278447462672E-01  2.345181343418E-01 -3.025084707380E-01
C41  2.149185873310E-01 -4.993464861240E-01  3.973812102645E-01
C42 -2.149185873310E-01  6.535138760195E-04  1.026187897355E-01
C43 -2.149185873310E-01  4.993464861240E-01 -3.973812102645E-01
C44  2.149185873310E-01 -6.535138760197E-04 -1.026187897355E-01
C45  2.922923050089E-01 -4.961206733625E-01  4.806891402558E-01
C46 -2.922923050089E-01  3.879326637493E-03  1.931085974417E-02
C47 -2.922923050089E-01  4.961206733625E-01 -4.806891402558E-01
C48  2.922923050089E-01 -3.879326637493E-03 -1.931085974417E-02
C49  3.074306209655E-01 -4.311701419164E-01 -3.066003705315E-01
C50 -3.074306209655E-01  6.882985808358E-02 -1.933996294685E-01
C51 -3.074306209655E-01  4.311701419164E-01  3.066003705315E-01
C52  3.074306209655E-01 -6.882985808358E-02  1.933996294685E-01
H53  2.643874996846E-01 -4.167245017893E-01 -2.014227156365E-01
H54 -2.643874996846E-01  8.327549821072E-02 -2.985772843635E-01
H55 -2.643874996846E-01  4.167245017893E-01  2.014227156365E-01
H56  2.643874996846E-01 -8.327549821072E-02  2.985772843635E-01
C57  3.783269688624E-01 -4.095198102160E-01 -2.332155049188E-01
C58 -3.783269688624E-01  9.048018978400E-02 -2.667844950812E-01
C59 -3.783269688624E-01  4.095198102160E-01  2.332155049188E-01
C60  3.783269688624E-01 -9.048018978400E-02  2.667844950812E-01
H61  3.874730720994E-01 -3.698545133540E-01 -7.892469995702E-02
H62 -3.874730720994E-01  1.301454866460E-01 -4.210753000430E-01
H63 -3.874730720994E-01  3.698545133540E-01  7.892469995702E-02
H64  3.874730720994E-01 -1.301454866460E-01  4.210753000430E-01
C65  4.404522470004E-01 -4.487318501639E-01 -3.667195558683E-01
C66 -4.404522470004E-01  5.126814983614E-02 -1.332804441317E-01
C67 -4.404522470004E-01  4.487318501639E-01  3.667195558683E-01
C68  4.404522470004E-01 -5.126814983614E-02  1.332804441317E-01
C69  4.262483076068E-01  4.722833251251E-01  4.263568433600E-01
C70 -4.262483076068E-01 -2.771667487488E-02  7.364315663999E-02
C71 -4.262483076068E-01 -4.722833251251E-01 -4.263568433600E-01
C72  4.262483076068E-01  2.771667487488E-02 -7.364315663999E-02
C73  3.513282257760E-01  4.532611122505E-01  3.546800375507E-01
C74 -3.513282257760E-01 -4.673888774947E-02  1.453199624493E-01
C75 -3.513282257760E-01 -4.532611122505E-01 -3.546800375507E-01
C76  3.513282257760E-01  4.673888774947E-02 -1.453199624493E-01
H77  3.421159582507E-01  4.109652049680E-01  2.012175208278E-01
H78 -3.421159582507E-01 -8.903479503200E-02  2.987824791722E-01
H79 -3.421159582507E-01 -4.109652049680E-01 -2.012175208278E-01
H80  3.421159582507E-01  8.903479503200E-02 -2.987824791722E-01
C81 -4.865000287644E-01 -4.199177910894E-01 -2.985846584745E-01
C82  4.865000287644E-01  8.008220891063E-02 -2.014153415255E-01
C83  4.865000287644E-01  4.199177910894E-01  2.985846584745E-01
C84 -4.865000287644E-01 -8.008220891063E-02  2.014153415255E-01
H85 -4.770626363119E-01 -3.440323911691E-01 -1.612773591652E-01
H86  4.770626363119E-01  1.559676088309E-01 -3.387226408348E-01
H87  4.770626363119E-01  3.440323911691E-01  1.612773591652E-01
H88 -4.770626363119E-01 -1.559676088309E-01  3.387226408348E-01


#===END

data_OPT_STEP_6

_symmetry_space_group_name_H-M 'P 1'
_cell_length_a     18.22638600
_cell_length_b      7.81312299
_cell_length_c      6.19005600
_cell_angle_alpha   90.000000
_cell_angle_beta   90.428674
_cell_angle_gamma   90.000000

loop_
_atom_site_label
_atom_site_fract_x
_atom_site_fract_y
_atom_site_fract_z
C1  1.638338612642E-01 -3.671699675118E-01  4.718250739114E-01
C2 -1.638338612642E-01  1.328300324882E-01  2.817492608859E-02
C3 -1.638338612642E-01  3.671699675118E-01 -4.718250739114E-01
C4  1.638338612642E-01 -1.328300324882E-01 -2.817492608859E-02
H5  1.821395261519E-01 -2.399450831943E-01 -4.414104122160E-01
H6 -1.821395261519E-01  2.600549168057E-01 -5.858958778396E-02
H7 -1.821395261519E-01  2.399450831943E-01  4.414104122160E-01
H8  1.821395261519E-01 -2.600549168057E-01  5.858958778396E-02
C9  9.028770807220E-02 -3.768925667223E-01  4.014227314647E-01
C10 -9.028770807220E-02  1.231074332777E-01  9.857726853534E-02
C11 -9.028770807220E-02  3.768925667223E-01 -4.014227314647E-01
C12  9.028770807220E-02 -1.231074332777E-01 -9.857726853534E-02
H13  4.993954410744E-02 -2.977262606839E-01  4.771400358477E-01
H14 -4.993954410744E-02  2.022737393161E-01  2.285996415230E-02
H15 -4.993954410744E-02  2.977262606839E-01 -4.771400358477E-01
H16  4.993954410744E-02 -2.022737393161E-01 -2.285996415230E-02
C17  6.862928980063E-02  4.993836521340E-01  2.437723536030E-01
C18 -6.862928980063E-02 -6.163478659688E-04  2.562276463970E-01
C19 -6.862928980063E-02 -4.993836521340E-01 -2.437723536030E-01
C20  6.862928980063E-02  6.163478659686E-04 -2.562276463970E-01
H21  1.342697448189E-02  4.978245178435E-01  1.843891789069E-01
H22 -1.342697448189E-02 -2.175482156524E-03  3.156108210931E-01
H23 -1.342697448189E-02 -4.978245178435E-01 -1.843891789069E-01
H24  1.342697448189E-02  2.175482156523E-03 -3.156108210931E-01
C25  1.192334308629E-01  3.671508090004E-01  1.737427469959E-01
C26 -1.192334308629E-01 -1.328491909997E-01  3.262572530041E-01
C27 -1.192334308629E-01 -3.671508090004E-01 -1.737427469959E-01
C28  1.192334308629E-01  1.328491909996E-01 -3.262572530041E-01
H29  9.912859598797E-02  2.292441075050E-01  9.398087294261E-02
H30 -9.912859598797E-02 -2.707558924950E-01  4.060191270574E-01
H31 -9.912859598797E-02 -2.292441075050E-01 -9.398087294261E-02
H32  9.912859598797E-02  2.707558924950E-01 -4.060191270574E-01
C33  1.931726756856E-01  3.826512152306E-01  2.405065653205E-01
C34 -1.931726756856E-01 -1.173487847694E-01  2.594934346795E-01
C35 -1.931726756856E-01 -3.826512152306E-01 -2.405065653205E-01
C36  1.931726756856E-01  1.173487847694E-01 -2.594934346795E-01
H37  2.297870980745E-01  2.932116279154E-01  1.833707616084E-01
H38 -2.297870980745E-01 -2.067883720846E-01  3.166292383916E-01
H39 -2.297870980745E-01 -2.932116279154E-01 -1.833707616084E-01
H40  2.297870980745E-01  2.067883720846E-01 -3.166292383916E-01
C41  2.160281310591E-01 -4.913415912704E-01  3.969406346701E-01
C42 -2.160281310591E-01  8.658408729623E-03  1.030593653299E-01
C43 -2.160281310591E-01  4.913415912704E-01 -3.969406346701E-01
C44  2.160281310591E-01 -8.658408729623E-03 -1.030593653299E-01
C45  2.931266826705E-01 -4.870440469429E-01  4.789432976065E-01
C46 -2.931266826705E-01  1.295595305708E-02  2.105670239351E-02
C47 -2.931266826705E-01  4.870440469429E-01 -4.789432976065E-01
C48  2.931266826705E-01 -1.295595305708E-02 -2.105670239351E-02
C49  3.083661902404E-01 -4.305489190755E-01 -3.029396750873E-01
C50 -3.083661902404E-01  6.945108092455E-02 -1.970603249127E-01
C51 -3.083661902404E-01  4.305489190754E-01  3.029396750873E-01
C52  3.083661902404E-01 -6.945108092455E-02  1.970603249127E-01
H53  2.638717910759E-01 -4.428450787430E-01 -1.815302638418E-01
H54 -2.638717910759E-01  5.715492125698E-02 -3.184697361582E-01
H55 -2.638717910759E-01  4.428450787430E-01  1.815302638418E-01
H56  2.638717910759E-01 -5.715492125698E-02  3.184697361582E-01
C57  3.794177182180E-01 -4.022149753231E-01 -2.329079597072E-01
C58 -3.794177182180E-01  9.778502467690E-02 -2.670920402928E-01
C59 -3.794177182180E-01  4.022149753231E-01  2.329079597072E-01
C60  3.794177182180E-01 -9.778502467690E-02  2.670920402928E-01
H61  3.896994750045E-01 -3.662298740001E-01 -6.919299584444E-02
H62 -3.896994750045E-01  1.337701259999E-01 -4.308070041556E-01
H63 -3.896994750045E-01  3.662298740001E-01  6.919299584444E-02
H64  3.896994750045E-01 -1.337701259999E-01  4.308070041556E-01
C65  4.409654397108E-01 -4.415568190302E-01 -3.685073154764E-01
C66 -4.409654397108E-01  5.844318096982E-02 -1.314926845236E-01
C67 -4.409654397108E-01  4.415568190302E-01  3.685073154764E-01
C68  4.409654397108E-01 -5.844318096982E-02  1.314926845236E-01
C69  4.262486663871E-01  4.748706686429E-01  4.253431253013E-01
C70 -4.262486663871E-01 -2.512933135709E-02  7.465687469875E-02
C71 -4.262486663871E-01 -4.748706686429E-01 -4.253431253013E-01
C72  4.262486663871E-01  2.512933135709E-02 -7.465687469875E-02
C73  3.514199811615E-01  4.603209190757E-01  3.516527724310E-01
C74 -3.514199811615E-01 -3.967908092426E-02  1.483472275690E-01
C75 -3.514199811615E-01 -4.603209190757E-01 -3.516527724310E-01
C76  3.514199811615E-01  3.967908092426E-02 -1.483472275690E-01
H77  3.419011940242E-01  4.252132712338E-01  1.866825658682E-01
H78 -3.419011940242E-01 -7.478672876620E-02  3.133174341318E-01
H79 -3.419011940242E-01 -4.252132712338E-01 -1.866825658682E-01
H80  3.419011940242E-01  7.478672876620E-02 -3.133174341318E-01
C81 -4.859841653140E-01 -4.158232592704E-01 -2.987716625732E-01
C82  4.859841653140E-01  8.417674072958E-02 -2.012283374268E-01
C83  4.859841653140E-01  4.158232592704E-01  2.987716625732E-01
C84 -4.859841653140E-01 -8.417674072958E-02  2.012283374268E-01
H85 -4.760344161808E-01 -3.238398782965E-01 -1.630072258447E-01
H86  4.760344161808E-01  1.761601217035E-01 -3.369927741552E-01
H87  4.760344161808E-01  3.238398782965E-01  1.630072258447E-01
H88 -4.760344161808E-01 -1.761601217035E-01  3.369927741552E-01


#===END

data_OPT_STEP_7

_symmetry_space_group_name_H-M 'P 1'
_cell_length_a     18.17237018
_cell_length_b      7.59398885
_cell_length_c      6.28711861
_cell_angle_alpha   90.000000
_cell_angle_beta   90.503916
_cell_angle_gamma   90.000000

loop_
_atom_site_label
_atom_site_fract_x
_atom_site_fract_y
_atom_site_fract_z
C1  1.619634965403E-01 -3.827647148052E-01  4.821640673427E-01
C2 -1.619634965403E-01  1.172352851948E-01  1.783593265729E-02
C3 -1.619634965403E-01  3.827647148052E-01 -4.821640673427E-01
C4  1.619634965403E-01 -1.172352851948E-01 -1.783593265729E-02
H5  1.761739815284E-01 -2.935950261455E-01 -3.992219387115E-01
H6 -1.761739815284E-01  2.064049738545E-01 -1.007780612885E-01
H7 -1.761739815284E-01  2.935950261455E-01  3.992219387115E-01
H8  1.761739815284E-01 -2.064049738545E-01  1.007780612885E-01
C9  8.881513237471E-02 -3.874571431898E-01  4.084055859425E-01
C10 -8.881513237471E-02  1.125428568102E-01  9.159441405745E-02
C11 -8.881513237471E-02  3.874571431898E-01 -4.084055859425E-01
C12  8.881513237471E-02 -1.125428568102E-01 -9.159441405745E-02
H13  4.928356653510E-02 -3.049896989236E-01  4.795456836873E-01
H14 -4.928356653510E-02  1.950103010764E-01  2.045431631272E-02
H15 -4.928356653510E-02  3.049896989236E-01 -4.795456836873E-01
H16  4.928356653510E-02 -1.950103010764E-01 -2.045431631272E-02
C17  6.768682097336E-02  4.926335799157E-01  2.486709297122E-01
C18 -6.768682097336E-02 -7.366420084256E-03  2.513290702878E-01
C19 -6.768682097336E-02 -4.926335799157E-01 -2.486709297122E-01
C20  6.768682097336E-02  7.366420084256E-03 -2.513290702878E-01
H21  1.334568870548E-02  4.926912243970E-01  1.885323068349E-01
H22 -1.334568870548E-02 -7.308775602977E-03  3.114676931651E-01
H23 -1.334568870548E-02 -4.926912243970E-01 -1.885323068349E-01
H24  1.334568870548E-02  7.308775602976E-03 -3.114676931651E-01
C25  1.211547335259E-01  3.850287057099E-01  1.572261867478E-01
C26 -1.211547335259E-01 -1.149712942901E-01  3.427738132522E-01
C27 -1.211547335259E-01 -3.850287057099E-01 -1.572261867478E-01
C28  1.211547335259E-01  1.149712942901E-01 -3.427738132522E-01
H29  1.078488310702E-01  3.094282200679E-01  2.554234702804E-02
H30 -1.078488310702E-01 -1.905717799321E-01  4.744576529720E-01
H31 -1.078488310702E-01 -3.094282200679E-01 -2.554234702804E-02
H32  1.078488310702E-01  1.905717799321E-01 -4.744576529720E-01
C33  1.926213787616E-01  3.764059096637E-01  2.437941339896E-01
C34 -1.926213787616E-01 -1.235940903363E-01  2.562058660104E-01
C35 -1.926213787616E-01 -3.764059096637E-01 -2.437941339896E-01
C36  1.926213787616E-01  1.235940903363E-01 -2.562058660104E-01
H37  2.278062468739E-01  2.717431435516E-01  2.005114936711E-01
H38 -2.278062468739E-01 -2.282568564484E-01  2.994885063289E-01
H39 -2.278062468739E-01 -2.717431435516E-01 -2.005114936711E-01
H40  2.278062468739E-01  2.282568564484E-01 -2.994885063289E-01
C41  2.156299423035E-01 -4.960609978039E-01  3.970980933436E-01
C42 -2.156299423035E-01  3.939002196080E-03  1.029019066564E-01
C43 -2.156299423035E-01  4.960609978039E-01 -3.970980933436E-01
C44  2.156299423035E-01 -3.939002196080E-03 -1.029019066564E-01
C45  2.928649218057E-01 -4.921702478437E-01  4.785181393591E-01
C46 -2.928649218057E-01  7.829752156304E-03  2.148186064087E-02
C47 -2.928649218057E-01  4.921702478437E-01 -4.785181393591E-01
C48  2.928649218057E-01 -7.829752156304E-03 -2.148186064087E-02
C49  3.078756072403E-01 -4.360684182977E-01 -3.056275451450E-01
C50 -3.078756072403E-01  6.393158170226E-02 -1.943724548550E-01
C51 -3.078756072403E-01  4.360684182977E-01  3.056275451450E-01
C52  3.078756072403E-01 -6.393158170226E-02  1.943724548550E-01
H53  2.640444761367E-01 -4.218332337174E-01 -1.988006322730E-01
H54 -2.640444761367E-01  7.816676628262E-02 -3.011993677270E-01
H55 -2.640444761367E-01  4.218332337174E-01  1.988006322730E-01
H56  2.640444761367E-01 -7.816676628262E-02  3.011993677270E-01
C57  3.788281909414E-01 -4.107207837047E-01 -2.340908542839E-01
C58 -3.788281909414E-01  8.927921629529E-02 -2.659091457161E-01
C59 -3.788281909414E-01  4.107207837047E-01  2.340908542839E-01
C60  3.788281909414E-01 -8.927921629529E-02  2.659091457161E-01
H61  3.887312334782E-01 -3.701002679439E-01 -7.623679918458E-02
H62 -3.887312334782E-01  1.298997320561E-01 -4.237632008154E-01
H63 -3.887312334782E-01  3.701002679439E-01  7.623679918458E-02
H64  3.887312334782E-01 -1.298997320561E-01  4.237632008154E-01
C65  4.407018048919E-01 -4.492090764613E-01 -3.677382533167E-01
C66 -4.407018048919E-01  5.079092353875E-02 -1.322617466833E-01
C67 -4.407018048919E-01  4.492090764613E-01  3.677382533167E-01
C68  4.407018048919E-01 -5.079092353875E-02  1.322617466833E-01
C69  4.262982812293E-01  4.722391193034E-01  4.261914413196E-01
C70 -4.262982812293E-01 -2.776088069663E-02  7.380855868039E-02
C71 -4.262982812293E-01 -4.722391193034E-01 -4.261914413196E-01
C72  4.262982812293E-01  2.776088069663E-02 -7.380855868039E-02
C73  3.514866350499E-01  4.587679037676E-01  3.518559393152E-01
C74 -3.514866350499E-01 -4.123209623236E-02  1.481440606848E-01
C75 -3.514866350499E-01 -4.587679037676E-01 -3.518559393152E-01
C76  3.514866350499E-01  4.123209623236E-02 -1.481440606848E-01
H77  3.420379675318E-01  4.182422082502E-01  1.934522637423E-01
H78 -3.420379675318E-01 -8.175779174977E-02  3.065477362577E-01
H79 -3.420379675318E-01 -4.182422082502E-01 -1.934522637423E-01
H80  3.420379675318E-01  8.175779174977E-02 -3.065477362577E-01
C81 -4.862342579944E-01 -4.216591521916E-01 -2.988452087988E-01
C82  4.862342579944E-01  7.834084780843E-02 -2.011547912012E-01
C83  4.862342579944E-01  4.216591521916E-01  2.988452087988E-01
C84 -4.862342579944E-01 -7.834084780843E-02  2.011547912012E-01
H85 -4.763400073239E-01 -3.549334992082E-01 -1.558623712301E-01
H86  4.763400073239E-01  1.450665007918E-01 -3.441376287699E-01
H87  4.763400073239E-01  3.549334992082E-01  1.558623712301E-01
H88 -4.763400073239E-01 -1.450665007918E-01  3.441376287699E-01


#===END

data_OPT_STEP_8

_symmetry_space_group_name_H-M 'P 1'
_cell_length_a     18.18615305
_cell_length_b      7.84234847
_cell_length_c      6.24178249
_cell_angle_alpha   90.000000
_cell_angle_beta   90.254720
_cell_angle_gamma   90.000000

loop_
_atom_site_label
_atom_site_fract_x
_atom_site_fract_y
_atom_site_fract_z
C1  1.641765456836E-01 -3.659367691844E-01  4.692993999720E-01
C2 -1.641765456836E-01  1.340632308156E-01  3.070060002799E-02
C3 -1.641765456836E-01  3.659367691844E-01 -4.692993999720E-01
C4  1.641765456836E-01 -1.340632308156E-01 -3.070060002799E-02
H5  1.830703622604E-01 -2.386278110794E-01 -4.448597650974E-01
H6 -1.830703622604E-01  2.613721889206E-01 -5.514023490265E-02
H7 -1.830703622604E-01  2.386278110794E-01  4.448597650974E-01
H8  1.830703622604E-01 -2.613721889206E-01  5.514023490265E-02
C9  8.994324293320E-02 -3.781752604221E-01  4.038414076872E-01
C10 -8.994324293320E-02  1.218247395779E-01  9.615859231279E-02
C11 -8.994324293320E-02  3.781752604221E-01 -4.038414076872E-01
C12  8.994324293320E-02 -1.218247395779E-01 -9.615859231279E-02
H13  4.978356971649E-02 -2.928450318331E-01  4.764971564776E-01
H14 -4.978356971649E-02  2.071549681669E-01  2.350284352243E-02
H15 -4.978356971649E-02  2.928450318331E-01 -4.764971564776E-01
H16  4.978356971649E-02 -2.071549681669E-01 -2.350284352243E-02
C17  6.779064028728E-02  4.969007469429E-01  2.503871810900E-01
C18 -6.779064028728E-02 -3.099253057064E-03  2.496128189100E-01
C19 -6.779064028728E-02 -4.969007469429E-01 -2.503871810900E-01
C20  6.779064028728E-02  3.099253057064E-03 -2.496128189100E-01
H21  1.192979357086E-02  4.967259568083E-01  1.885011328417E-01
H22 -1.192979357086E-02 -3.274043191722E-03  3.114988671583E-01
H23 -1.192979357086E-02 -4.967259568083E-01 -1.885011328417E-01
H24  1.192979357086E-02  3.274043191722E-03 -3.114988671583E-01
C25  1.182214575469E-01  3.629454029877E-01  1.840908483039E-01
C26 -1.182214575469E-01 -1.370545970123E-01  3.159091516961E-01
C27 -1.182214575469E-01 -3.629454029877E-01 -1.840908483039E-01
C28  1.182214575469E-01  1.370545970123E-01 -3.159091516961E-01
H29  9.886797108144E-02  2.347595954471E-01  9.599904182150E-02
H30 -9.886797108144E-02 -2.652404045529E-01  4.040009581785E-01
H31 -9.886797108144E-02 -2.347595954471E-01 -9.599904182150E-02
H32  9.886797108144E-02  2.652404045529E-01 -4.040009581785E-01
C33  1.929294243825E-01  3.832024000139E-01  2.445593784306E-01
C34 -1.929294243825E-01 -1.167975999861E-01  2.554406215694E-01
C35 -1.929294243825E-01 -3.832024000139E-01 -2.445593784306E-01
C36  1.929294243825E-01  1.167975999861E-01 -2.554406215694E-01
H37  2.294971009231E-01  2.896840041708E-01  1.921951510400E-01
H38 -2.294971009231E-01 -2.103159958292E-01  3.078048489600E-01
H39 -2.294971009231E-01 -2.896840041708E-01 -1.921951510400E-01
H40  2.294971009231E-01  2.103159958292E-01 -3.078048489600E-01
C41  2.154905552291E-01 -4.962608670855E-01  4.017823131493E-01
C42 -2.154905552291E-01  3.739132914543E-03  9.821768685066E-02
C43 -2.154905552291E-01  4.962608670855E-01 -4.017823131493E-01
C44  2.154905552291E-01 -3.739132914543E-03 -9.821768685066E-02
C45  2.926086057767E-01 -4.934793639472E-01  4.830876053459E-01
C46 -2.926086057767E-01  6.520636052819E-03  1.691239465406E-02
C47 -2.926086057767E-01  4.934793639472E-01 -4.830876053459E-01
C48  2.926086057767E-01 -6.520636052819E-03 -1.691239465406E-02
C49  3.077647683471E-01 -4.368725437136E-01 -3.004052207801E-01
C50 -3.077647683471E-01  6.312745628642E-02 -1.995947792199E-01
C51 -3.077647683471E-01  4.368725437136E-01  3.004052207801E-01
C52  3.077647683471E-01 -6.312745628642E-02  1.995947792199E-01
H53  2.627308878169E-01 -4.378480504434E-01 -1.831067516797E-01
H54 -2.627308878169E-01  6.215194955662E-02 -3.168932483203E-01
H55 -2.627308878169E-01  4.378480504434E-01  1.831067516797E-01
H56  2.627308878169E-01 -6.215194955662E-02  3.168932483203E-01
C57  3.789802512531E-01 -4.104717554724E-01 -2.306749876734E-01
C58 -3.789802512531E-01  8.952824452759E-02 -2.693250123266E-01
C59 -3.789802512531E-01  4.104717554724E-01  2.306749876734E-01
C60  3.789802512531E-01 -8.952824452759E-02  2.693250123266E-01
H61  3.895927304260E-01 -3.722130645609E-01 -6.662294281271E-02
H62 -3.895927304260E-01  1.277869354391E-01 -4.333770571873E-01
H63 -3.895927304260E-01  3.722130645609E-01  6.662294281271E-02
H64  3.895927304260E-01 -1.277869354391E-01  4.333770571873E-01
C65  4.407680002463E-01 -4.491212736992E-01 -3.661631357840E-01
C66 -4.407680002463E-01  5.087872630075E-02 -1.338368642160E-01
C67 -4.407680002463E-01  4.491212736992E-01  3.661631357840E-01
C68  4.407680002463E-01 -5.087872630075E-02  1.338368642160E-01
C69  4.261365115621E-01  4.759819782335E-01  4.255677331442E-01
C70 -4.261365115621E-01 -2.401802176648E-02  7.443226685580E-02
C71 -4.261365115621E-01 -4.759819782335E-01 -4.255677331442E-01
C72  4.261365115621E-01  2.401802176648E-02 -7.443226685580E-02
C73  3.511191222304E-01  4.592872494695E-01  3.538311725991E-01
C74 -3.511191222304E-01 -4.071275053053E-02  1.461688274009E-01
C75 -3.511191222304E-01 -4.592872494695E-01 -3.538311725991E-01
C76  3.511191222304E-01  4.071275053053E-02 -1.461688274009E-01
H77  3.415667190768E-01  4.238284209956E-01  1.877082806312E-01
H78 -3.415667190768E-01 -7.617157900438E-02  3.122917193688E-01
H79 -3.415667190768E-01 -4.238284209956E-01 -1.877082806312E-01
H80  3.415667190768E-01  7.617157900438E-02 -3.122917193688E-01
C81 -4.859900814764E-01 -4.252414431249E-01 -2.963508488547E-01
C82  4.859900814764E-01  7.475855687509E-02 -2.036491511453E-01
C83  4.859900814764E-01  4.252414431249E-01  2.963508488547E-01
C84 -4.859900814764E-01 -7.475855687509E-02  2.036491511453E-01
H85 -4.758031868134E-01 -3.474518397581E-01 -1.539792949722E-01
H86  4.758031868134E-01  1.525481602419E-01 -3.460207050278E-01
H87  4.758031868134E-01  3.474518397581E-01  1.539792949722E-01
H88 -4.758031868134E-01 -1.525481602419E-01  3.460207050278E-01


#===END

data_OPT_STEP_9

_symmetry_space_group_name_H-M 'P 1'
_cell_length_a     18.14380441
_cell_length_b      7.62689036
_cell_length_c      6.33128124
_cell_angle_alpha   90.000000
_cell_angle_beta   90.355672
_cell_angle_gamma   90.000000

loop_
_atom_site_label
_atom_site_fract_x
_atom_site_fract_y
_atom_site_fract_z
C1  1.612469441604E-01 -3.867131561262E-01  4.858300874336E-01
C2 -1.612469441604E-01  1.132868438738E-01  1.416991256642E-02
C3 -1.612469441604E-01  3.867131561262E-01 -4.858300874336E-01
C4  1.612469441604E-01 -1.132868438738E-01 -1.416991256642E-02
H5  1.751967608409E-01 -3.029674981500E-01 -3.905884334524E-01
H6 -1.751967608409E-01  1.970325018500E-01 -1.094115665476E-01
H7 -1.751967608409E-01  3.029674981500E-01  3.905884334524E-01
H8  1.751967608409E-01 -1.970325018500E-01  1.094115665476E-01
C9  8.827384296510E-02 -3.881261141665E-01  4.104052169634E-01
C10 -8.827384296510E-02  1.118738858335E-01  8.959478303658E-02
C11 -8.827384296510E-02  3.881261141665E-01 -4.104052169634E-01
C12  8.827384296510E-02 -1.118738858335E-01 -8.959478303658E-02
H13  4.868469227700E-02 -3.005955079230E-01  4.786815821895E-01
H14 -4.868469227700E-02  1.994044920770E-01  2.131841781052E-02
H15 -4.868469227700E-02  3.005955079230E-01 -4.786815821895E-01
H16  4.868469227700E-02 -1.994044920770E-01 -2.131841781052E-02
C17  6.711977167211E-02  4.926158990458E-01  2.526484152355E-01
C18 -6.711977167211E-02 -7.384100954216E-03  2.473515847645E-01
C19 -6.711977167211E-02 -4.926158990458E-01 -2.526484152355E-01
C20  6.711977167211E-02  7.384100954215E-03 -2.473515847645E-01
H21  1.204598781988E-02  4.927088694482E-01  1.910237941566E-01
H22 -1.204598781988E-02 -7.291130551840E-03  3.089762058434E-01
H23 -1.204598781988E-02 -4.927088694482E-01 -1.910237941566E-01
H24  1.204598781988E-02  7.291130551840E-03 -3.089762058434E-01
C25  1.207034880745E-01  3.856242518034E-01  1.631256714209E-01
C26 -1.207034880745E-01 -1.143757481966E-01  3.368743285791E-01
C27 -1.207034880745E-01 -3.856242518034E-01 -1.631256714209E-01
C28  1.207034880745E-01  1.143757481966E-01 -3.368743285791E-01
H29  1.071343708777E-01  3.089369022984E-01  3.217080910220E-02
H30 -1.071343708777E-01 -1.910630977016E-01  4.678291908978E-01
H31 -1.071343708777E-01 -3.089369022984E-01 -3.217080910220E-02
H32  1.071343708777E-01  1.910630977016E-01 -4.678291908978E-01
C33  1.923096914860E-01  3.774375892938E-01  2.482697414866E-01
C34 -1.923096914860E-01 -1.225624107062E-01  2.517302585134E-01
C35 -1.923096914860E-01 -3.774375892938E-01 -2.482697414866E-01
C36  1.923096914860E-01  1.225624107062E-01 -2.517302585134E-01
H37  2.277474349346E-01  2.714935791267E-01  2.076107817360E-01
H38 -2.277474349346E-01 -2.285064208733E-01  2.923892182640E-01
H39 -2.277474349346E-01 -2.714935791267E-01 -2.076107817360E-01
H40  2.277474349346E-01  2.285064208733E-01 -2.923892182640E-01
C41  2.152356233259E-01 -4.964015341487E-01  3.996031573075E-01
C42 -2.152356233259E-01  3.598465851317E-03  1.003968426925E-01
C43 -2.152356233259E-01  4.964015341487E-01 -3.996031573075E-01
C44  2.152356233259E-01 -3.598465851317E-03 -1.003968426925E-01
C45  2.925701375284E-01 -4.918332300671E-01  4.795966227989E-01
C46 -2.925701375284E-01  8.166769932932E-03  2.040337720112E-02
C47 -2.925701375284E-01  4.918332300671E-01 -4.795966227989E-01
C48  2.925701375284E-01 -8.166769932932E-03 -2.040337720112E-02
C49  3.073969838230E-01 -4.387279495460E-01 -3.046692296779E-01
C50 -3.073969838230E-01  6.127205045402E-02 -1.953307703221E-01
C51 -3.073969838230E-01  4.387279495460E-01  3.046692296779E-01
C52  3.073969838230E-01 -6.127205045402E-02  1.953307703221E-01
H53  2.628419676922E-01 -4.221362550531E-01 -1.981589258102E-01
H54 -2.628419676922E-01  7.786374494693E-02 -3.018410741898E-01
H55 -2.628419676922E-01  4.221362550531E-01  1.981589258102E-01
H56  2.628419676922E-01 -7.786374494693E-02  3.018410741898E-01
C57  3.784642471600E-01 -4.147233785005E-01 -2.333476013349E-01
C58 -3.784642471600E-01  8.527662149947E-02 -2.666523986651E-01
C59 -3.784642471600E-01  4.147233785005E-01  2.333476013349E-01
C60  3.784642471600E-01 -8.527662149947E-02  2.666523986651E-01
H61  3.886487295764E-01 -3.722112376131E-01 -7.481584710023E-02
H62 -3.886487295764E-01  1.277887623869E-01 -4.251841528998E-01
H63 -3.886487295764E-01  3.722112376131E-01  7.481584710023E-02
H64  3.886487295764E-01 -1.277887623869E-01  4.251841528998E-01
C65  4.405253575346E-01 -4.535728503523E-01 -3.664186746628E-01
C66 -4.405253575346E-01  4.642714964775E-02 -1.335813253372E-01
C67 -4.405253575346E-01  4.535728503523E-01  3.664186746628E-01
C68  4.405253575346E-01 -4.642714964775E-02  1.335813253372E-01
C69  4.262156633847E-01  4.740702144839E-01  4.260282053758E-01
C70 -4.262156633847E-01 -2.592978551613E-02  7.397179462423E-02
C71 -4.262156633847E-01 -4.740702144839E-01 -4.260282053758E-01
C72  4.262156633847E-01  2.592978551613E-02 -7.397179462423E-02
C73  3.512786716957E-01  4.609887455718E-01  3.523894631723E-01
C74 -3.512786716957E-01 -3.901125442816E-02  1.476105368277E-01
C75 -3.512786716957E-01 -4.609887455718E-01 -3.523894631723E-01
C76  3.512786716957E-01  3.901125442816E-02 -1.476105368277E-01
H77  3.417533950309E-01  4.203284862060E-01  1.925958997972E-01
H78 -3.417533950309E-01 -7.967151379403E-02  3.074041002028E-01
H79 -3.417533950309E-01 -4.203284862060E-01 -1.925958997972E-01
H80  3.417533950309E-01  7.967151379403E-02 -3.074041002028E-01
C81 -4.862755966294E-01 -4.275624626747E-01 -2.974616452164E-01
C82  4.862755966294E-01  7.243753732527E-02 -2.025383547836E-01
C83  4.862755966294E-01  4.275624626747E-01  2.974616452164E-01
C84 -4.862755966294E-01 -7.243753732527E-02  2.025383547836E-01
H85 -4.762294065785E-01 -3.641670547729E-01 -1.520578640800E-01
H86  4.762294065785E-01  1.358329452271E-01 -3.479421359200E-01
H87  4.762294065785E-01  3.641670547729E-01  1.520578640800E-01
H88 -4.762294065785E-01 -1.358329452271E-01  3.479421359200E-01


#===END

data_OPT_STEP_10

_symmetry_space_group_name_H-M 'P 1'
_cell_length_a     18.08616935
_cell_length_b      7.55919370
_cell_length_c      6.34295035
_cell_angle_alpha   90.000000
_cell_angle_beta   89.952868
_cell_angle_gamma   90.000000

loop_
_atom_site_label
_atom_site_fract_x
_atom_site_fract_y
_atom_site_fract_z
C1  1.599351012557E-01 -3.947165742128E-01  4.929273356738E-01
C2 -1.599351012557E-01  1.052834257872E-01  7.072664326156E-03
C3 -1.599351012557E-01  3.947165742128E-01 -4.929273356738E-01
C4  1.599351012557E-01 -1.052834257872E-01 -7.072664326157E-03
H5  1.737536782969E-01 -3.097970798859E-01 -3.827953147591E-01
H6 -1.737536782969E-01  1.902029201141E-01 -1.172046852409E-01
H7 -1.737536782969E-01  3.097970798859E-01  3.827953147591E-01
H8  1.737536782969E-01 -1.902029201141E-01  1.172046852409E-01
C9  8.721164279791E-02 -3.933630899034E-01  4.150045222799E-01
C10 -8.721164279791E-02  1.066369100966E-01  8.499547772013E-02
C11 -8.721164279791E-02  3.933630899034E-01 -4.150045222799E-01
C12  8.721164279791E-02 -1.066369100966E-01 -8.499547772013E-02
H13  4.725142518248E-02 -3.028206427917E-01  4.819837725810E-01
H14 -4.725142518248E-02  1.971793572083E-01  1.801622741900E-02
H15 -4.725142518248E-02  3.028206427917E-01 -4.819837725810E-01
H16  4.725142518248E-02 -1.971793572083E-01 -1.801622741900E-02
C17  6.715285841277E-02  4.930603118593E-01  2.513135114355E-01
C18 -6.715285841277E-02 -6.939688140733E-03  2.486864885645E-01
C19 -6.715285841277E-02 -4.930603118593E-01 -2.513135114355E-01
C20  6.715285841277E-02  6.939688140733E-03 -2.486864885645E-01
H21  1.154826092123E-02  4.923271008290E-01  1.899464717910E-01
H22 -1.154826092123E-02 -7.672899171047E-03  3.100535282090E-01
H23 -1.154826092123E-02 -4.923271008290E-01 -1.899464717910E-01
H24  1.154826092123E-02  7.672899171047E-03 -3.100535282090E-01
C25  1.210884493970E-01  3.840318596483E-01  1.630010916320E-01
C26 -1.210884493970E-01 -1.159681403517E-01  3.369989083680E-01
C27 -1.210884493970E-01 -3.840318596483E-01 -1.630010916320E-01
C28  1.210884493970E-01  1.159681403517E-01 -3.369989083680E-01
H29  1.074335930469E-01  3.037445531636E-01  3.349717636177E-02
H30 -1.074335930469E-01 -1.962554468364E-01  4.665028236382E-01
H31 -1.074335930469E-01 -3.037445531636E-01 -3.349717636177E-02
H32  1.074335930469E-01  1.962554468364E-01 -4.665028236382E-01
C33  1.927784984425E-01  3.762303513923E-01  2.479443733033E-01
C34 -1.927784984425E-01 -1.237696486077E-01  2.520556266967E-01
C35 -1.927784984425E-01 -3.762303513923E-01 -2.479443733033E-01
C36  1.927784984425E-01  1.237696486077E-01 -2.520556266967E-01
H37  2.291698445573E-01  2.746238416958E-01  2.032446864786E-01
H38 -2.291698445573E-01 -2.253761583042E-01  2.967553135214E-01
H39 -2.291698445573E-01 -2.746238416958E-01 -2.032446864786E-01
H40  2.291698445573E-01  2.253761583042E-01 -2.967553135214E-01
C41  2.142507098217E-01  4.938140958951E-01  4.075465802805E-01
C42 -2.142507098217E-01 -6.185904104915E-03  9.245341971948E-02
C43 -2.142507098217E-01 -4.938140958951E-01 -4.075465802805E-01
C44  2.142507098217E-01  6.185904104915E-03 -9.245341971948E-02
C45  2.917738277476E-01  4.996680034980E-01  4.861164658385E-01
C46 -2.917738277476E-01 -3.319965020486E-04  1.388353416146E-02
C47 -2.917738277476E-01 -4.996680034980E-01 -4.861164658385E-01
C48  2.917738277476E-01  3.319965020483E-04 -1.388353416146E-02
C49  3.065465540482E-01 -4.423816684992E-01 -3.004112670866E-01
C50 -3.065465540482E-01  5.761833150077E-02 -1.995887329134E-01
C51 -3.065465540482E-01  4.423816684992E-01  3.004112670866E-01
C52  3.065465540482E-01 -5.761833150077E-02  1.995887329134E-01
H53  2.614593244140E-01 -4.234580491556E-01 -1.935290400024E-01
H54 -2.614593244140E-01  7.654195084445E-02 -3.064709599976E-01
H55 -2.614593244140E-01  4.234580491556E-01  1.935290400024E-01
H56  2.614593244140E-01 -7.654195084445E-02  3.064709599976E-01
C57  3.778077985798E-01 -4.189051564249E-01 -2.299289050107E-01
C58 -3.778077985798E-01  8.109484357514E-02 -2.700710949893E-01
C59 -3.778077985798E-01  4.189051564249E-01  2.299289050107E-01
C60  3.778077985798E-01 -8.109484357514E-02  2.700710949893E-01
H61  3.880899301161E-01 -3.753177566651E-01 -7.068722314248E-02
H62 -3.880899301161E-01  1.246822433349E-01 -4.293127768575E-01
H63 -3.880899301161E-01  3.753177566651E-01  7.068722314248E-02
H64  3.880899301161E-01 -1.246822433349E-01  4.293127768575E-01
C65  4.401884485250E-01 -4.560388977212E-01 -3.645424488211E-01
C66 -4.401884485250E-01  4.396110227883E-02 -1.354575511789E-01
C67 -4.401884485250E-01  4.560388977212E-01  3.645424488211E-01
C68  4.401884485250E-01 -4.396110227883E-02  1.354575511789E-01
C69  4.260512853347E-01  4.734601934784E-01  4.271254180192E-01
C70 -4.260512853347E-01 -2.653980652164E-02  7.287458198082E-02
C71 -4.260512853347E-01 -4.734601934784E-01 -4.271254180192E-01
C72  4.260512853347E-01  2.653980652164E-02 -7.287458198082E-02
C73  3.508733436865E-01  4.563917851747E-01  3.563462756063E-01
C74 -3.508733436865E-01 -4.360821482528E-02  1.436537243937E-01
C75 -3.508733436865E-01 -4.563917851747E-01 -3.563462756063E-01
C76  3.508733436865E-01  4.360821482528E-02 -1.436537243937E-01
H77  3.414366521565E-01  4.156749791107E-01  1.953308511914E-01
H78 -3.414366521565E-01 -8.432502088928E-02  3.046691488086E-01
H79 -3.414366521565E-01 -4.156749791107E-01 -1.953308511914E-01
H80  3.414366521565E-01  8.432502088928E-02 -3.046691488086E-01
C81 -4.864237674707E-01 -4.308797270864E-01 -2.959507516618E-01
C82  4.864237674707E-01  6.912027291358E-02 -2.040492483382E-01
C83  4.864237674707E-01  4.308797270864E-01  2.959507516618E-01
C84 -4.864237674707E-01 -6.912027291358E-02  2.040492483382E-01
H85 -4.763776587420E-01 -3.714104064628E-01 -1.475909006985E-01
H86  4.763776587420E-01  1.285895935372E-01 -3.524090993015E-01
H87  4.763776587420E-01  3.714104064628E-01  1.475909006985E-01
H88 -4.763776587420E-01 -1.285895935372E-01  3.524090993015E-01


#===END

data_OPT_STEP_11

_symmetry_space_group_name_H-M 'P 1'
_cell_length_a     18.11061981
_cell_length_b      7.66769830
_cell_length_c      6.35517277
_cell_angle_alpha   90.000000
_cell_angle_beta   89.912404
_cell_angle_gamma   90.000000

loop_
_atom_site_label
_atom_site_fract_x
_atom_site_fract_y
_atom_site_fract_z
C1  1.609126570525E-01 -3.768449316797E-01  4.834376853331E-01
C2 -1.609126570525E-01  1.231550683203E-01  1.656231466693E-02
C3 -1.609126570525E-01  3.768449316797E-01 -4.834376853331E-01
C4  1.609126570525E-01 -1.231550683203E-01 -1.656231466693E-02
H5  1.753378824877E-01 -2.874858303869E-01 -3.924065119509E-01
H6 -1.753378824877E-01  2.125141696131E-01 -1.075934880491E-01
H7 -1.753378824877E-01  2.874858303869E-01  3.924065119509E-01
H8  1.753378824877E-01 -2.125141696131E-01  1.075934880491E-01
C9  8.766986544128E-02 -3.823203592977E-01  4.108673587336E-01
C10 -8.766986544128E-02  1.176796407023E-01  8.913264126642E-02
C11 -8.766986544128E-02  3.823203592977E-01 -4.108673587336E-01
C12  8.766986544128E-02 -1.176796407023E-01 -8.913264126642E-02
H13  4.711329567018E-02 -2.875067273170E-01  4.763286591182E-01
H14 -4.711329567018E-02  2.124932726830E-01  2.367134088184E-02
H15 -4.711329567018E-02  2.875067273170E-01 -4.763286591182E-01
H16  4.711329567018E-02 -2.124932726830E-01 -2.367134088184E-02
C17  6.712564956849E-02  4.995355992013E-01  2.520821077440E-01
C18 -6.712564956849E-02 -4.644007986559E-04  2.479178922560E-01
C19 -6.712564956849E-02 -4.995355992013E-01 -2.520821077440E-01
C20  6.712564956849E-02  4.644007986557E-04 -2.479178922560E-01
H21  1.000124319938E-02  4.981754386190E-01  1.897911026015E-01
H22 -1.000124319938E-02 -1.824561380985E-03  3.102088973985E-01
H23 -1.000124319938E-02 -4.981754386190E-01 -1.897911026015E-01
H24  1.000124319938E-02  1.824561380985E-03 -3.102088973985E-01
C25  1.195133667186E-01  3.772318852003E-01  1.772658173131E-01
C26 -1.195133667186E-01 -1.227681147997E-01  3.227341826869E-01
C27 -1.195133667186E-01 -3.772318852003E-01 -1.772658173131E-01
C28  1.195133667186E-01  1.227681147997E-01 -3.227341826869E-01
H29  1.038263175092E-01  2.803409835074E-01  5.903441776526E-02
H30 -1.038263175092E-01 -2.196590164926E-01  4.409655822347E-01
H31 -1.038263175092E-01 -2.803409835074E-01 -5.903441776526E-02
H32  1.038263175092E-01  2.196590164926E-01 -4.409655822347E-01
C33  1.921605016970E-01  3.800618350076E-01  2.532602244706E-01
C34 -1.921605016970E-01 -1.199381649924E-01  2.467397755294E-01
C35 -1.921605016970E-01 -3.800618350076E-01 -2.532602244706E-01
C36  1.921605016970E-01  1.199381649924E-01 -2.467397755294E-01
H37  2.285889056567E-01  2.728487924302E-01  2.141988610761E-01
H38 -2.285889056567E-01 -2.271512075698E-01  2.858011389239E-01
H39 -2.285889056567E-01 -2.728487924302E-01 -2.141988610761E-01
H40  2.285889056567E-01  2.271512075698E-01 -2.858011389239E-01
C41  2.146898426269E-01 -4.925086101297E-01  4.034057869388E-01
C42 -2.146898426269E-01  7.491389870302E-03  9.659421306123E-02
C43 -2.146898426269E-01  4.925086101297E-01 -4.034057869388E-01
C44  2.146898426269E-01 -7.491389870303E-03 -9.659421306123E-02
C45  2.920477284216E-01 -4.888009818078E-01  4.836203522547E-01
C46 -2.920477284216E-01  1.119901819218E-02  1.637964774527E-02
C47 -2.920477284216E-01  4.888009818078E-01 -4.836203522547E-01
C48  2.920477284216E-01 -1.119901819218E-02 -1.637964774527E-02
C49  3.067818162983E-01 -4.364101570121E-01 -3.010830531384E-01
C50 -3.067818162983E-01  6.358984298794E-02 -1.989169468616E-01
C51 -3.067818162983E-01  4.364101570121E-01  3.010830531384E-01
C52  3.067818162983E-01 -6.358984298794E-02  1.989169468616E-01
H53  2.605518642871E-01 -4.118248165196E-01 -1.935438358090E-01
H54 -2.605518642871E-01  8.817518348038E-02 -3.064561641910E-01
H55 -2.605518642871E-01  4.118248165196E-01  1.935438358090E-01
H56  2.605518642871E-01 -8.817518348038E-02  3.064561641910E-01
C57  3.780789446970E-01 -4.156454939030E-01 -2.302038821699E-01
C58 -3.780789446970E-01  8.435450609699E-02 -2.697961178301E-01
C59 -3.780789446970E-01  4.156454939030E-01  2.302038821699E-01
C60  3.780789446970E-01 -8.435450609699E-02  2.697961178301E-01
H61  3.888948388243E-01 -3.707483526199E-01 -6.723912644589E-02
H62 -3.888948388243E-01  1.292516473801E-01 -4.327608735541E-01
H63 -3.888948388243E-01  3.707483526199E-01  6.723912644589E-02
H64  3.888948388243E-01 -1.292516473801E-01  4.327608735541E-01
C65  4.403384540865E-01 -4.599590701295E-01 -3.619746314408E-01
C66 -4.403384540865E-01  4.004092987052E-02 -1.380253685592E-01
C67 -4.403384540865E-01  4.599590701295E-01  3.619746314408E-01
C68  4.403384540865E-01 -4.004092987052E-02  1.380253685592E-01
C69  4.260143503309E-01  4.753207442288E-01  4.273465335077E-01
C70 -4.260143503309E-01 -2.467925577123E-02  7.265346649230E-02
C71 -4.260143503309E-01 -4.753207442288E-01 -4.273465335077E-01
C72  4.260143503309E-01  2.467925577123E-02 -7.265346649230E-02
C73  3.507833302363E-01  4.627553165651E-01  3.559134539527E-01
C74 -3.507833302363E-01 -3.724468343492E-02  1.440865460473E-01
C75 -3.507833302363E-01 -4.627553165651E-01 -3.559134539527E-01
C76  3.507833302363E-01  3.724468343492E-02 -1.440865460473E-01
H77  3.410467524954E-01  4.246711662558E-01  1.895208956856E-01
H78 -3.410467524954E-01 -7.532883374424E-02  3.104791043144E-01
H79 -3.410467524954E-01 -4.246711662558E-01 -1.895208956856E-01
H80  3.410467524954E-01  7.532883374424E-02 -3.104791043144E-01
C81 -4.861944018566E-01 -4.379380020052E-01 -2.928902437975E-01
C82  4.861944018566E-01  6.206199799479E-02 -2.071097562025E-01
C83  4.861944018566E-01  4.379380020052E-01  2.928902437975E-01
C84 -4.861944018566E-01 -6.206199799479E-02  2.071097562025E-01
H85 -4.755349331549E-01 -3.932444013858E-01 -1.332075764821E-01
H86  4.755349331549E-01  1.067555986142E-01 -3.667924235179E-01
H87  4.755349331549E-01  3.932444013858E-01  1.332075764821E-01
H88 -4.755349331549E-01 -1.067555986142E-01  3.667924235179E-01


#===END

data_OPT_STEP_12

_symmetry_space_group_name_H-M 'P 1'
_cell_length_a     18.10165109
_cell_length_b      7.79255813
_cell_length_c      6.37941982
_cell_angle_alpha   90.000000
_cell_angle_beta   89.723542
_cell_angle_gamma   90.000000

loop_
_atom_site_label
_atom_site_fract_x
_atom_site_fract_y
_atom_site_fract_z
C1  1.617447312505E-01 -3.654226940751E-01  4.756904598532E-01
C2 -1.617447312505E-01  1.345773059249E-01  2.430954014679E-02
C3 -1.617447312505E-01  3.654226940751E-01 -4.756904598532E-01
C4  1.617447312505E-01 -1.345773059249E-01 -2.430954014679E-02
H5  1.785126838017E-01 -2.556405460996E-01 -4.176230447444E-01
H6 -1.785126838017E-01  2.443594539004E-01 -8.237695525557E-02
H7 -1.785126838017E-01  2.556405460996E-01  4.176230447444E-01
H8  1.785126838017E-01 -2.443594539004E-01  8.237695525557E-02
C9  8.892346580315E-02 -3.679551433195E-01  3.999702918175E-01
C10 -8.892346580315E-02  1.320448566805E-01  1.000297081825E-01
C11 -8.892346580315E-02  3.679551433195E-01 -3.999702918175E-01
C12  8.892346580315E-02 -1.320448566805E-01 -1.000297081825E-01
H13  4.784458585740E-02 -2.735438860941E-01  4.652328423868E-01
H14 -4.784458585740E-02  2.264561139059E-01  3.476715761318E-02
H15 -4.784458585740E-02  2.735438860941E-01 -4.652328423868E-01
H16  4.784458585740E-02 -2.264561139059E-01 -3.476715761318E-02
C17  6.712574008487E-02 -4.972003214557E-01  2.537113930332E-01
C18 -6.712574008487E-02  2.799678544307E-03  2.462886069668E-01
C19 -6.712574008487E-02  4.972003214557E-01 -2.537113930332E-01
C20  6.712574008487E-02 -2.799678544307E-03 -2.462886069668E-01
H21  9.227624046414E-03 -4.986813493022E-01  1.919959919929E-01
H22 -9.227624046414E-03  1.318650697807E-03  3.080040080071E-01
H23 -9.227624046414E-03  4.986813493022E-01 -1.919959919929E-01
H24  9.227624046414E-03 -1.318650697807E-03 -3.080040080071E-01
C25  1.202741681406E-01  3.905896045076E-01  1.718729888478E-01
C26 -1.202741681406E-01 -1.094103954924E-01  3.281270111522E-01
C27 -1.202741681406E-01 -3.905896045076E-01 -1.718729888478E-01
C28  1.202741681406E-01  1.094103954924E-01 -3.281270111522E-01
H29  1.040647285470E-01  2.921625494274E-01  5.437860568199E-02
H30 -1.040647285470E-01 -2.078374505726E-01  4.456213943180E-01
H31 -1.040647285470E-01 -2.921625494274E-01 -5.437860568199E-02
H32  1.040647285470E-01  2.078374505726E-01 -4.456213943180E-01
C33  1.923046266506E-01  3.875042800584E-01  2.528454177501E-01
C34 -1.923046266506E-01 -1.124957199416E-01  2.471545822499E-01
C35 -1.923046266506E-01 -3.875042800584E-01 -2.528454177501E-01
C36  1.923046266506E-01  1.124957199416E-01 -2.471545822499E-01
H37  2.302858747781E-01  2.873972951800E-01  2.069525031058E-01
H38 -2.302858747781E-01 -2.126027048200E-01  2.930474968942E-01
H39 -2.302858747781E-01 -2.873972951800E-01 -2.069525031058E-01
H40  2.302858747781E-01  2.126027048200E-01 -2.930474968942E-01
C41  2.143981682059E-01 -4.901737455299E-01  4.057226983561E-01
C42 -2.143981682059E-01  9.826254470082E-03  9.427730164391E-02
C43 -2.143981682059E-01  4.901737455299E-01 -4.057226983561E-01
C44  2.143981682059E-01 -9.826254470082E-03 -9.427730164391E-02
C45  2.918048770974E-01 -4.877626714158E-01  4.861725299006E-01
C46 -2.918048770974E-01  1.223732858415E-02  1.382747009941E-02
C47 -2.918048770974E-01  4.877626714158E-01 -4.861725299006E-01
C48  2.918048770974E-01 -1.223732858415E-02 -1.382747009941E-02
C49  3.067361728975E-01 -4.318565705330E-01 -3.014212556727E-01
C50 -3.067361728975E-01  6.814342946705E-02 -1.985787443273E-01
C51 -3.067361728975E-01  4.318565705330E-01  3.014212556727E-01
C52  3.067361728975E-01 -6.814342946705E-02  1.985787443273E-01
H53  2.599062605359E-01 -3.918719109087E-01 -1.982897460770E-01
H54 -2.599062605359E-01  1.081280890913E-01 -3.017102539230E-01
H55 -2.599062605359E-01  3.918719109087E-01  1.982897460770E-01
H56  2.599062605359E-01 -1.081280890913E-01  3.017102539230E-01
C57  3.781106294783E-01 -4.195527811949E-01 -2.284059356339E-01
C58 -3.781106294783E-01  8.044721880507E-02 -2.715940643661E-01
C59 -3.781106294783E-01  4.195527811949E-01  2.284059356339E-01
C60  3.781106294783E-01 -8.044721880507E-02  2.715940643661E-01
H61  3.890176338139E-01 -3.729917550560E-01 -6.490625474769E-02
H62 -3.890176338139E-01  1.270082449440E-01 -4.350937452523E-01
H63 -3.890176338139E-01  3.729917550560E-01  6.490625474769E-02
H64  3.890176338139E-01 -1.270082449440E-01  4.350937452523E-01
C65  4.403516435582E-01 -4.576779880142E-01 -3.625334653416E-01
C66 -4.403516435582E-01  4.232201198575E-02 -1.374665346584E-01
C67 -4.403516435582E-01  4.576779880142E-01  3.625334653416E-01
C68  4.403516435582E-01 -4.232201198575E-02  1.374665346584E-01
C69  4.259608272318E-01  4.796244007256E-01  4.272962792010E-01
C70 -4.259608272318E-01 -2.037559927440E-02  7.270372079904E-02
C71 -4.259608272318E-01 -4.796244007256E-01 -4.272962792010E-01
C72  4.259608272318E-01  2.037559927440E-02 -7.270372079904E-02
C73  3.506945382175E-01  4.673435329356E-01  3.572937375135E-01
C74 -3.506945382175E-01 -3.265646706436E-02  1.427062624865E-01
C75 -3.506945382175E-01 -4.673435329356E-01 -3.572937375135E-01
C76  3.506945382175E-01  3.265646706436E-02 -1.427062624865E-01
H77  3.409964397333E-01  4.281905510265E-01  1.903940883752E-01
H78 -3.409964397333E-01 -7.180944897347E-02  3.096059116248E-01
H79 -3.409964397333E-01 -4.281905510265E-01 -1.903940883752E-01
H80  3.409964397333E-01  7.180944897347E-02 -3.096059116248E-01
C81 -4.861455224838E-01 -4.311227147432E-01 -2.974450871061E-01
C82  4.861455224838E-01  6.887728525685E-02 -2.025549128939E-01
C83  4.861455224838E-01  4.311227147432E-01  2.974450871061E-01
C84 -4.861455224838E-01 -6.887728525685E-02  2.025549128939E-01
H85 -4.752047442518E-01 -3.799550524274E-01 -1.384862991688E-01
H86  4.752047442518E-01  1.200449475726E-01 -3.615137008312E-01
H87  4.752047442518E-01  3.799550524274E-01  1.384862991688E-01
H88 -4.752047442518E-01 -1.200449475726E-01  3.615137008312E-01


#===END

data_OPT_STEP_13

_symmetry_space_group_name_H-M 'P 1'
_cell_length_a     18.11314135
_cell_length_b      7.68514506
_cell_length_c      6.35957188
_cell_angle_alpha   90.000000
_cell_angle_beta   89.889555
_cell_angle_gamma   90.000000

loop_
_atom_site_label
_atom_site_fract_x
_atom_site_fract_y
_atom_site_fract_z
C1  1.611804510225E-01 -3.751065079881E-01  4.826594153223E-01
C2 -1.611804510225E-01  1.248934920119E-01  1.734058467771E-02
C3 -1.611804510225E-01  3.751065079881E-01 -4.826594153223E-01
C4  1.611804510225E-01 -1.248934920119E-01 -1.734058467771E-02
H5  1.765478442083E-01 -2.776324316772E-01 -3.996012943153E-01
H6 -1.765478442083E-01  2.223675683228E-01 -1.003987056847E-01
H7 -1.765478442083E-01  2.776324316772E-01  3.996012943153E-01
H8  1.765478442083E-01 -2.223675683228E-01  1.003987056847E-01
C9  8.821113856366E-02 -3.784084243540E-01  4.079228573051E-01
C10 -8.821113856366E-02  1.215915756460E-01  9.207714269494E-02
C11 -8.821113856366E-02  3.784084243540E-01 -4.079228573051E-01
C12  8.821113856366E-02 -1.215915756460E-01 -9.207714269494E-02
H13  4.751168690007E-02 -2.833250845775E-01  4.732702214588E-01
H14 -4.751168690007E-02  2.166749154225E-01  2.672977854122E-02
H15 -4.751168690007E-02  2.833250845775E-01 -4.732702214588E-01
H16  4.751168690007E-02 -2.166749154225E-01 -2.672977854122E-02
C17  6.712529329164E-02  4.990939597495E-01  2.534782840775E-01
C18 -6.712529329164E-02 -9.060402504608E-04  2.465217159225E-01
C19 -6.712529329164E-02 -4.990939597495E-01 -2.534782840775E-01
C20  6.712529329164E-02  9.060402504606E-04 -2.465217159225E-01
H21  9.723077880711E-03  4.982689264131E-01  1.910537304653E-01
H22 -9.723077880711E-03 -1.731073586916E-03  3.089462695347E-01
H23 -9.723077880711E-03 -4.982689264131E-01 -1.910537304653E-01
H24  9.723077880711E-03  1.731073586916E-03 -3.089462695347E-01
C25  1.196678245294E-01  3.798028668253E-01  1.761539693392E-01
C26 -1.196678245294E-01 -1.201971331747E-01  3.238460306608E-01
C27 -1.196678245294E-01 -3.798028668253E-01 -1.761539693392E-01
C28  1.196678245294E-01  1.201971331747E-01 -3.238460306608E-01
H29  1.035820736920E-01  2.809107432928E-01  5.907718500595E-02
H30 -1.035820736920E-01 -2.190892567072E-01  4.409228149940E-01
H31 -1.035820736920E-01 -2.809107432928E-01 -5.907718500595E-02
H32  1.035820736920E-01  2.190892567072E-01 -4.409228149940E-01
C33  1.920721447242E-01  3.800916725368E-01  2.542228198404E-01
C34 -1.920721447242E-01 -1.199083274632E-01  2.457771801596E-01
C35 -1.920721447242E-01 -3.800916725368E-01 -2.542228198404E-01
C36  1.920721447242E-01  1.199083274632E-01 -2.457771801596E-01
H37  2.290471205472E-01  2.750835868445E-01  2.125073141221E-01
H38 -2.290471205472E-01 -2.249164131555E-01  2.874926858779E-01
H39 -2.290471205472E-01 -2.750835868445E-01 -2.125073141221E-01
H40  2.290471205472E-01  2.249164131555E-01 -2.874926858779E-01
C41  2.145393764082E-01 -4.939629067901E-01  4.055482595865E-01
C42 -2.145393764082E-01  6.037093209881E-03  9.445174041346E-02
C43 -2.145393764082E-01  4.939629067901E-01 -4.055482595865E-01
C44  2.145393764082E-01 -6.037093209881E-03 -9.445174041346E-02
C45  2.919815990734E-01 -4.902449586761E-01  4.854455342601E-01
C46 -2.919815990734E-01  9.755041323939E-03  1.455446573991E-02
C47 -2.919815990734E-01  4.902449586761E-01 -4.854455342601E-01
C48  2.919815990734E-01 -9.755041323940E-03 -1.455446573991E-02
C49  3.068821012663E-01 -4.366441225080E-01 -3.001047603886E-01
C50 -3.068821012663E-01  6.335587749205E-02 -1.998952396114E-01
C51 -3.068821012663E-01  4.366441225080E-01  3.001047603886E-01
C52  3.068821012663E-01 -6.335587749205E-02  1.998952396114E-01
H53  2.604484792055E-01 -4.072243902581E-01 -1.936072950438E-01
H54 -2.604484792055E-01  9.277560974193E-02 -3.063927049562E-01
H55 -2.604484792055E-01  4.072243902581E-01  1.936072950438E-01
H56  2.604484792055E-01 -9.277560974193E-02  3.063927049562E-01
C57  3.782164804802E-01 -4.180711067902E-01 -2.288139280479E-01
C58 -3.782164804802E-01  8.192889320975E-02 -2.711860719521E-01
C59 -3.782164804802E-01  4.180711067902E-01  2.288139280479E-01
C60  3.782164804802E-01 -8.192889320975E-02  2.711860719521E-01
H61  3.890915937913E-01 -3.723004415546E-01 -6.553995876918E-02
H62 -3.890915937913E-01  1.276995584454E-01 -4.344600412308E-01
H63 -3.890915937913E-01  3.723004415546E-01  6.553995876918E-02
H64  3.890915937913E-01 -1.276995584454E-01  4.344600412308E-01
C65  4.404056536489E-01 -4.594723164039E-01 -3.618447107616E-01
C66 -4.404056536489E-01  4.052768359606E-02 -1.381552892384E-01
C67 -4.404056536489E-01  4.594723164039E-01  3.618447107616E-01
C68  4.404056536489E-01 -4.052768359606E-02  1.381552892384E-01
C69  4.259962590030E-01  4.768334116758E-01  4.272747670173E-01
C70 -4.259962590030E-01 -2.316658832423E-02  7.272523298274E-02
C71 -4.259962590030E-01 -4.768334116758E-01 -4.272747670173E-01
C72  4.259962590030E-01  2.316658832423E-02 -7.272523298274E-02
C73  3.507427070976E-01  4.635578024715E-01  3.567070124877E-01
C74 -3.507427070976E-01 -3.644219752847E-02  1.432929875123E-01
C75 -3.507427070976E-01 -4.635578024715E-01 -3.567070124877E-01
C76  3.507427070976E-01  3.644219752847E-02 -1.432929875123E-01
H77  3.409995056611E-01  4.248915595943E-01  1.899849065142E-01
H78 -3.409995056611E-01 -7.510844040567E-02  3.100150934858E-01
H79 -3.409995056611E-01 -4.248915595943E-01 -1.899849065142E-01
H80  3.409995056611E-01  7.510844040567E-02 -3.100150934858E-01
C81 -4.861227609520E-01 -4.354989593347E-01 -2.942792942239E-01
C82  4.861227609520E-01  6.450104066529E-02 -2.057207057761E-01
C83  4.861227609520E-01  4.354989593347E-01  2.942792942239E-01
C84 -4.861227609520E-01 -6.450104066529E-02  2.057207057761E-01
H85 -4.753170025948E-01 -3.884989223680E-01 -1.344674565469E-01
H86  4.753170025948E-01  1.115010776320E-01 -3.655325434531E-01
H87  4.753170025948E-01  3.884989223680E-01  1.344674565469E-01
H88 -4.753170025948E-01 -1.115010776320E-01  3.655325434531E-01


#===END

data_OPT_STEP_14

_symmetry_space_group_name_H-M 'P 1'
_cell_length_a     18.08705449
_cell_length_b      7.65712687
_cell_length_c      6.35417393
_cell_angle_alpha   90.000000
_cell_angle_beta   89.601045
_cell_angle_gamma   90.000000

loop_
_atom_site_label
_atom_site_fract_x
_atom_site_fract_y
_atom_site_fract_z
C1  1.608245769725E-01 -3.764683968431E-01  4.835778728470E-01
C2 -1.608245769725E-01  1.235316031569E-01  1.642212715300E-02
C3 -1.608245769725E-01  3.764683968431E-01 -4.835778728470E-01
C4  1.608245769725E-01 -1.235316031569E-01 -1.642212715300E-02
H5  1.762682133653E-01 -2.769280344386E-01 -4.001684768059E-01
H6 -1.762682133653E-01  2.230719655614E-01 -9.983152319414E-02
H7 -1.762682133653E-01  2.769280344386E-01  4.001684768059E-01
H8  1.762682133653E-01 -2.230719655614E-01  9.983152319414E-02
C9  8.791418467409E-02 -3.794164484738E-01  4.086379248945E-01
C10 -8.791418467409E-02  1.205835515262E-01  9.136207510546E-02
C11 -8.791418467409E-02  3.794164484738E-01 -4.086379248945E-01
C12  8.791418467409E-02 -1.205835515262E-01 -9.136207510546E-02
H13  4.713253009333E-02 -2.837792716631E-01  4.736980352223E-01
H14 -4.713253009333E-02  2.162207283369E-01  2.630196477768E-02
H15 -4.713253009333E-02  2.837792716631E-01 -4.736980352223E-01
H16  4.713253009333E-02 -2.162207283369E-01 -2.630196477768E-02
C17  6.696254087743E-02  4.975514635053E-01  2.544338929939E-01
C18 -6.696254087743E-02 -2.448536494667E-03  2.455661070061E-01
C19 -6.696254087743E-02 -4.975514635053E-01 -2.544338929939E-01
C20  6.696254087743E-02  2.448536494666E-03 -2.455661070061E-01
H21  9.573877593955E-03  4.971542118038E-01  1.919909566740E-01
H22 -9.573877593955E-03 -2.845788196244E-03  3.080090433260E-01
H23 -9.573877593955E-03 -4.971542118038E-01 -1.919909566740E-01
H24  9.573877593955E-03  2.845788196244E-03 -3.080090433260E-01
C25  1.194998765479E-01  3.762946361271E-01  1.783433824932E-01
C26 -1.194998765479E-01 -1.237053638729E-01  3.216566175068E-01
C27 -1.194998765479E-01 -3.762946361271E-01 -1.783433824932E-01
C28  1.194998765479E-01  1.237053638729E-01 -3.216566175068E-01
H29  1.034752617053E-01  2.768195645411E-01  6.150693458301E-02
H30 -1.034752617053E-01 -2.231804354589E-01  4.384930654170E-01
H31 -1.034752617053E-01 -2.768195645411E-01 -6.150693458301E-02
H32  1.034752617053E-01  2.231804354589E-01 -4.384930654170E-01
C33  1.918520882049E-01  3.758968707141E-01  2.568482322571E-01
C34 -1.918520882049E-01 -1.241031292859E-01  2.431517677429E-01
C35 -1.918520882049E-01 -3.758968707141E-01 -2.568482322571E-01
C36  1.918520882049E-01  1.241031292859E-01 -2.431517677429E-01
H37  2.289501838005E-01  2.693230077875E-01  2.157390768668E-01
H38 -2.289501838005E-01 -2.306769922125E-01  2.842609231332E-01
H39 -2.289501838005E-01 -2.693230077875E-01 -2.157390768668E-01
H40  2.289501838005E-01  2.306769922125E-01 -2.842609231332E-01
C41  2.142260180505E-01 -4.969646987882E-01  4.074505989393E-01
C42 -2.142260180505E-01  3.035301211795E-03  9.254940106072E-02
C43 -2.142260180505E-01  4.969646987882E-01 -4.074505989393E-01
C44  2.142260180505E-01 -3.035301211795E-03 -9.254940106072E-02
C45  2.916864440570E-01 -4.930399073457E-01  4.871576240291E-01
C46 -2.916864440570E-01  6.960092654349E-03  1.284237597086E-02
C47 -2.916864440570E-01  4.930399073457E-01 -4.871576240291E-01
C48  2.916864440570E-01 -6.960092654349E-03 -1.284237597086E-02
C49  3.063304096372E-01 -4.380748766119E-01 -2.987867574337E-01
C50 -3.063304096372E-01  6.192512338807E-02 -2.012132425663E-01
C51 -3.063304096372E-01  4.380748766119E-01  2.987867574337E-01
C52  3.063304096372E-01 -6.192512338807E-02  2.012132425662E-01
H53  2.596805578357E-01 -4.081321535393E-01 -1.921906785521E-01
H54 -2.596805578357E-01  9.186784646070E-02 -3.078093214479E-01
H55 -2.596805578357E-01  4.081321535393E-01  1.921906785521E-01
H56  2.596805578357E-01 -9.186784646070E-02  3.078093214479E-01
C57  3.776598317914E-01 -4.186282004335E-01 -2.279468371847E-01
C58 -3.776598317914E-01  8.137179956653E-02 -2.720531628153E-01
C59 -3.776598317914E-01  4.186282004335E-01  2.279468371847E-01
C60  3.776598317914E-01 -8.137179956653E-02  2.720531628153E-01
H61  3.882901372977E-01 -3.724724045622E-01 -6.469145486901E-02
H62 -3.882901372977E-01  1.275275954378E-01 -4.353085451310E-01
H63 -3.882901372977E-01  3.724724045622E-01  6.469145486901E-02
H64  3.882901372977E-01 -1.275275954378E-01  4.353085451310E-01
C65  4.401281830207E-01 -4.597848426041E-01 -3.613331128621E-01
C66 -4.401281830207E-01  4.021515739593E-02 -1.386668871379E-01
C67 -4.401281830207E-01  4.597848426041E-01  3.613331128621E-01
C68  4.401281830207E-01 -4.021515739593E-02  1.386668871379E-01
C69  4.260131103575E-01  4.756550998989E-01  4.279384646717E-01
C70 -4.260131103575E-01 -2.434490010113E-02  7.206153532833E-02
C71 -4.260131103575E-01 -4.756550998989E-01 -4.279384646717E-01
C72  4.260131103575E-01  2.434490010113E-02 -7.206153532833E-02
C73  3.507559269187E-01  4.610445473804E-01  3.580853378932E-01
C74 -3.507559269187E-01 -3.895545261962E-02  1.419146621068E-01
C75 -3.507559269187E-01 -4.610445473804E-01 -3.580853378932E-01
C76  3.507559269187E-01  3.895545261962E-02 -1.419146621068E-01
H77  3.412342289682E-01  4.218234361081E-01  1.914958567337E-01
H78 -3.412342289682E-01 -7.817656389186E-02  3.085041432663E-01
H79 -3.412342289682E-01 -4.218234361081E-01 -1.914958567337E-01
H80  3.412342289682E-01  7.817656389186E-02 -3.085041432663E-01
C81 -4.864060811113E-01 -4.352266757957E-01 -2.941915487139E-01
C82  4.864060811113E-01  6.477332420435E-02 -2.058084512861E-01
C83  4.864060811113E-01  4.352266757957E-01  2.941915487139E-01
C84 -4.864060811113E-01 -6.477332420435E-02  2.058084512861E-01
H85 -4.757886042427E-01 -3.871195037760E-01 -1.344665851119E-01
H86  4.757886042427E-01  1.128804962240E-01 -3.655334148881E-01
H87  4.757886042427E-01  3.871195037760E-01  1.344665851119E-01
H88 -4.757886042427E-01 -1.128804962240E-01  3.655334148881E-01


#===END

data_OPT_STEP_15

_symmetry_space_group_name_H-M 'P 1'
_cell_length_a     18.06038411
_cell_length_b      7.62459713
_cell_length_c      6.36727691
_cell_angle_alpha   90.000000
_cell_angle_beta   89.307766
_cell_angle_gamma   90.000000

loop_
_atom_site_label
_atom_site_fract_x
_atom_site_fract_y
_atom_site_fract_z
C1  1.596908372472E-01 -3.743823714884E-01  4.835843765790E-01
C2 -1.596908372472E-01  1.256176285116E-01  1.641562342096E-02
C3 -1.596908372472E-01  3.743823714884E-01 -4.835843765790E-01
C4  1.596908372472E-01 -1.256176285116E-01 -1.641562342096E-02
H5  1.752502601743E-01 -2.698798453527E-01 -4.033879199639E-01
H6 -1.752502601743E-01  2.301201546473E-01 -9.661208003609E-02
H7 -1.752502601743E-01  2.698798453527E-01  4.033879199639E-01
H8  1.752502601743E-01 -2.301201546473E-01  9.661208003609E-02
C9  8.673719245841E-02 -3.805585335247E-01  4.097167494734E-01
C10 -8.673719245841E-02  1.194414664753E-01  9.028325052659E-02
C11 -8.673719245841E-02  3.805585335247E-01 -4.097167494734E-01
C12  8.673719245841E-02 -1.194414664753E-01 -9.028325052659E-02
H13  4.547681903796E-02 -2.851337610948E-01  4.729044854755E-01
H14 -4.547681903796E-02  2.148662389052E-01  2.709551452447E-02
H15 -4.547681903796E-02  2.851337610948E-01 -4.729044854755E-01
H16  4.547681903796E-02 -2.148662389052E-01 -2.709551452447E-02
C17  6.658768749992E-02  4.979988571106E-01  2.547832146788E-01
C18 -6.658768749992E-02 -2.001142889405E-03  2.452167853212E-01
C19 -6.658768749992E-02 -4.979988571106E-01 -2.547832146788E-01
C20  6.658768749992E-02  2.001142889405E-03 -2.452167853212E-01
H21  9.110071671808E-03  4.963371463878E-01  1.932792511316E-01
H22 -9.110071671808E-03 -3.662853612182E-03  3.067207488684E-01
H23 -9.110071671808E-03 -4.963371463878E-01 -1.932792511316E-01
H24  9.110071671808E-03  3.662853612182E-03 -3.067207488684E-01
C25  1.194561385892E-01  3.771819835485E-01  1.797736009215E-01
C26 -1.194561385892E-01 -1.228180164515E-01  3.202263990785E-01
C27 -1.194561385892E-01 -3.771819835485E-01 -1.797736009215E-01
C28  1.194561385892E-01  1.228180164515E-01 -3.202263990785E-01
H29  1.034042094094E-01  2.748796225239E-01  6.480769400446E-02
H30 -1.034042094094E-01 -2.251203774761E-01  4.351923059955E-01
H31 -1.034042094094E-01 -2.748796225239E-01 -6.480769400446E-02
H32  1.034042094094E-01  2.251203774761E-01 -4.351923059955E-01
C33  1.921988873657E-01  3.815875551467E-01  2.555270722170E-01
C34 -1.921988873657E-01 -1.184124448533E-01  2.444729277830E-01
C35 -1.921988873657E-01 -3.815875551467E-01 -2.555270722170E-01
C36  1.921988873657E-01  1.184124448533E-01 -2.444729277830E-01
H37  2.305434575334E-01  2.759634305708E-01  2.119367126496E-01
H38 -2.305434575334E-01 -2.240365694292E-01  2.880632873504E-01
H39 -2.305434575334E-01 -2.759634305708E-01 -2.119367126496E-01
H40  2.305434575334E-01  2.240365694292E-01 -2.880632873504E-01
C41  2.136992323432E-01 -4.930814343635E-01  4.074223812579E-01
C42 -2.136992323432E-01  6.918565636490E-03  9.257761874212E-02
C43 -2.136992323432E-01  4.930814343635E-01 -4.074223812579E-01
C44  2.136992323432E-01 -6.918565636490E-03 -9.257761874212E-02
C45  2.913529102953E-01 -4.853932359061E-01  4.852724901524E-01
C46 -2.913529102953E-01  1.460676409393E-02  1.472750984761E-02
C47 -2.913529102953E-01  4.853932359061E-01 -4.852724901524E-01
C48  2.913529102953E-01 -1.460676409393E-02 -1.472750984761E-02
C49  3.059024499234E-01 -4.245660124259E-01 -3.037280651331E-01
C50 -3.059024499234E-01  7.543398757405E-02 -1.962719348669E-01
C51 -3.059024499234E-01  4.245660124259E-01  3.037280651331E-01
C52  3.059024499234E-01 -7.543398757405E-02  1.962719348669E-01
H53  2.587767890012E-01 -3.961427620770E-01 -1.958215498388E-01
H54 -2.587767890012E-01  1.038572379230E-01 -3.041784501612E-01
H55 -2.587767890012E-01  3.961427620770E-01  1.958215498388E-01
H56  2.587767890012E-01 -1.038572379230E-01  3.041784501612E-01
C57  3.772286525843E-01 -4.099421923948E-01 -2.312724507170E-01
C58 -3.772286525843E-01  9.005780760519E-02 -2.687275492830E-01
C59 -3.772286525843E-01  4.099421923948E-01  2.312724507170E-01
C60  3.772286525843E-01 -9.005780760519E-02  2.687275492830E-01
H61  3.874540544144E-01 -3.624392952984E-01 -6.863254395735E-02
H62 -3.874540544144E-01  1.375607047016E-01 -4.313674560426E-01
H63 -3.874540544144E-01  3.624392952984E-01  6.863254395735E-02
H64  3.874540544144E-01 -1.375607047016E-01  4.313674560426E-01
C65  4.399025092773E-01 -4.518485783922E-01 -3.642736001383E-01
C66 -4.399025092773E-01  4.815142160777E-02 -1.357263998617E-01
C67 -4.399025092773E-01  4.518485783922E-01  3.642736001383E-01
C68  4.399025092773E-01 -4.815142160777E-02  1.357263998617E-01
C69  4.259464891424E-01  4.808820415270E-01  4.265897718525E-01
C70 -4.259464891424E-01 -1.911795847300E-02  7.341022814747E-02
C71 -4.259464891424E-01 -4.808820415270E-01 -4.265897718525E-01
C72  4.259464891424E-01  1.911795847300E-02 -7.341022814747E-02
C73  3.507526537923E-01  4.688818212531E-01  3.561688465639E-01
C74 -3.507526537923E-01 -3.111817874687E-02  1.438311534361E-01
C75 -3.507526537923E-01 -4.688818212531E-01 -3.561688465639E-01
C76  3.507526537923E-01  3.111817874687E-02 -1.438311534361E-01
H77  3.414400970766E-01  4.276019649011E-01  1.907425585172E-01
H78 -3.414400970766E-01 -7.239803509888E-02  3.092574414828E-01
H79 -3.414400970766E-01 -4.276019649011E-01 -1.907425585172E-01
H80  3.414400970766E-01  7.239803509888E-02 -3.092574414828E-01
C81 -4.865321545266E-01 -4.336957962083E-01 -2.954118264514E-01
C82  4.865321545266E-01  6.630420379172E-02 -2.045881735486E-01
C83  4.865321545266E-01  4.336957962083E-01  2.954118264514E-01
C84 -4.865321545266E-01 -6.630420379172E-02  2.045881735486E-01
H85 -4.759843817139E-01 -3.777962403625E-01 -1.377418541290E-01
H86  4.759843817139E-01  1.222037596375E-01 -3.622581458710E-01
H87  4.759843817139E-01  3.777962403625E-01  1.377418541290E-01
H88 -4.759843817139E-01 -1.222037596375E-01  3.622581458710E-01


#===END

data_OPT_STEP_16

_symmetry_space_group_name_H-M 'P 1'
_cell_length_a     18.01957624
_cell_length_b      7.66275322
_cell_length_c      6.38051626
_cell_angle_alpha   90.000000
_cell_angle_beta   89.067458
_cell_angle_gamma   90.000000

loop_
_atom_site_label
_atom_site_fract_x
_atom_site_fract_y
_atom_site_fract_z
C1  1.599108171770E-01 -3.758549520479E-01  4.814432427404E-01
C2 -1.599108171770E-01  1.241450479521E-01  1.855675725960E-02
C3 -1.599108171770E-01  3.758549520479E-01 -4.814432427404E-01
C4  1.599108171770E-01 -1.241450479521E-01 -1.855675725960E-02
H5  1.754527013692E-01 -2.738599799469E-01 -4.033720108473E-01
H6 -1.754527013692E-01  2.261400200531E-01 -9.662798915265E-02
H7 -1.754527013692E-01  2.738599799469E-01  4.033720108473E-01
H8  1.754527013692E-01 -2.261400200531E-01  9.662798915265E-02
C9  8.701843647278E-02 -3.792265375512E-01  4.064922984525E-01
C10 -8.701843647278E-02  1.207734624488E-01  9.350770154753E-02
C11 -8.701843647278E-02  3.792265375512E-01 -4.064922984525E-01
C12  8.701843647278E-02 -1.207734624488E-01 -9.350770154753E-02
H13  4.566115586447E-02 -2.844533527578E-01  4.696941736573E-01
H14 -4.566115586447E-02  2.155466472422E-01  3.030582634265E-02
H15 -4.566115586447E-02  2.844533527578E-01 -4.696941736573E-01
H16  4.566115586447E-02 -2.155466472422E-01 -3.030582634265E-02
C17  6.654813481361E-02  4.991402227039E-01  2.535127776759E-01
C18 -6.654813481361E-02 -8.597772961414E-04  2.464872223241E-01
C19 -6.654813481361E-02 -4.991402227039E-01 -2.535127776759E-01
C20  6.654813481361E-02  8.597772961411E-04 -2.464872223241E-01
H21  8.870196349872E-03  4.968941657138E-01  1.937012302318E-01
H22 -8.870196349872E-03 -3.105834286241E-03  3.062987697682E-01
H23 -8.870196349872E-03 -4.968941657138E-01 -1.937012302318E-01
H24  8.870196349872E-03  3.105834286241E-03 -3.062987697682E-01
C25  1.191862889241E-01  3.775661581046E-01  1.790874409600E-01
C26 -1.191862889241E-01 -1.224338418954E-01  3.209125590400E-01
C27 -1.191862889241E-01 -3.775661581046E-01 -1.790874409600E-01
C28  1.191862889241E-01  1.224338418954E-01 -3.209125590400E-01
H29  1.029329919347E-01  2.758693635070E-01  6.399223483170E-02
H30 -1.029329919347E-01 -2.241306364930E-01  4.360077651683E-01
H31 -1.029329919347E-01 -2.758693635070E-01 -6.399223483170E-02
H32  1.029329919347E-01  2.241306364930E-01 -4.360077651683E-01
C33  1.920053305132E-01  3.800546860556E-01  2.551664806590E-01
C34 -1.920053305132E-01 -1.199453139444E-01  2.448335193410E-01
C35 -1.920053305132E-01 -3.800546860556E-01 -2.551664806590E-01
C36  1.920053305132E-01  1.199453139444E-01 -2.448335193410E-01
H37  2.311433388744E-01  2.772448982098E-01  2.071086117412E-01
H38 -2.311433388744E-01 -2.227551017902E-01  2.928913882588E-01
H39 -2.311433388744E-01 -2.772448982098E-01 -2.071086117412E-01
H40  2.311433388744E-01  2.227551017902E-01 -2.928913882588E-01
C41  2.134054316441E-01 -4.982983553410E-01  4.086239622921E-01
C42 -2.134054316441E-01  1.701644658984E-03  9.137603770790E-02
C43 -2.134054316441E-01  4.982983553410E-01 -4.086239622921E-01
C44  2.134054316441E-01 -1.701644658984E-03 -9.137603770790E-02
C45  2.909283755999E-01 -4.945457993958E-01  4.881128426843E-01
C46 -2.909283755999E-01  5.454200604245E-03  1.188715731572E-02
C47 -2.909283755999E-01  4.945457993958E-01 -4.881128426843E-01
C48  2.909283755999E-01 -5.454200604246E-03 -1.188715731572E-02
C49  3.050723789614E-01 -4.352706923081E-01 -3.008841947198E-01
C50 -3.050723789614E-01  6.472930769194E-02 -1.991158052802E-01
C51 -3.050723789614E-01  4.352706923081E-01  3.008841947198E-01
C52  3.050723789614E-01 -6.472930769194E-02  1.991158052802E-01
H53  2.574309465224E-01 -4.114805388713E-01 -1.912363530272E-01
H54 -2.574309465224E-01  8.851946112871E-02 -3.087636469728E-01
H55 -2.574309465224E-01  4.114805388713E-01  1.912363530272E-01
H56  2.574309465224E-01 -8.851946112871E-02  3.087636469728E-01
C57  3.764144033191E-01 -4.183687152161E-01 -2.290002606811E-01
C58 -3.764144033191E-01  8.163128478395E-02 -2.709997393189E-01
C59 -3.764144033191E-01  4.183687152161E-01  2.290002606811E-01
C60  3.764144033191E-01 -8.163128478395E-02  2.709997393189E-01
H61  3.861709051210E-01 -3.702136652741E-01 -6.689686641081E-02
H62 -3.861709051210E-01  1.297863347259E-01 -4.331031335892E-01
H63 -3.861709051210E-01  3.702136652741E-01  6.689686641081E-02
H64  3.861709051210E-01 -1.297863347259E-01  4.331031335892E-01
C65  4.395095046381E-01 -4.559107455980E-01 -3.630074679946E-01
C66 -4.395095046381E-01  4.408925440197E-02 -1.369925320054E-01
C67 -4.395095046381E-01  4.559107455980E-01  3.630074679946E-01
C68  4.395095046381E-01 -4.408925440197E-02  1.369925320054E-01
C69  4.260067369121E-01  4.758015767987E-01  4.286734881753E-01
C70 -4.260067369121E-01 -2.419842320132E-02  7.132651182475E-02
C71 -4.260067369121E-01 -4.758015767987E-01 -4.286734881753E-01
C72  4.260067369121E-01  2.419842320132E-02 -7.132651182475E-02
C73  3.507940631995E-01  4.597713349981E-01  3.597534169744E-01
C74 -3.507940631995E-01 -4.022866500194E-02  1.402465830256E-01
C75 -3.507940631995E-01 -4.597713349981E-01 -3.597534169744E-01
C76  3.507940631995E-01  4.022866500194E-02 -1.402465830256E-01
H77  3.418332433018E-01  4.170752263321E-01  1.952952039373E-01
H78 -3.418332433018E-01 -8.292477366792E-02  3.047047960627E-01
H79 -3.418332433018E-01 -4.170752263321E-01 -1.952952039373E-01
H80  3.418332433018E-01  8.292477366792E-02 -3.047047960627E-01
C81 -4.869866709722E-01 -4.323577742074E-01 -2.965069088043E-01
C82  4.869866709722E-01  6.764222579259E-02 -2.034930911957E-01
C83  4.869866709722E-01  4.323577742074E-01  2.965069088043E-01
C84 -4.869866709722E-01 -6.764222579259E-02  2.034930911957E-01
H85 -4.767582968320E-01 -3.738955295595E-01 -1.391559706642E-01
H86  4.767582968320E-01  1.261044704405E-01 -3.608440293358E-01
H87  4.767582968320E-01  3.738955295595E-01  1.391559706642E-01
H88 -4.767582968320E-01 -1.261044704405E-01  3.608440293358E-01


#===END

data_OPT_STEP_17

_symmetry_space_group_name_H-M 'P 1'
_cell_length_a     17.98285584
_cell_length_b      7.74144399
_cell_length_c      6.34364565
_cell_angle_alpha   90.000000
_cell_angle_beta   88.692960
_cell_angle_gamma   90.000000

loop_
_atom_site_label
_atom_site_fract_x
_atom_site_fract_y
_atom_site_fract_z
C1  1.593439611844E-01 -3.752204572237E-01  4.822475023579E-01
C2 -1.593439611844E-01  1.247795427763E-01  1.775249764211E-02
C3 -1.593439611844E-01  3.752204572237E-01 -4.822475023579E-01
C4  1.593439611844E-01 -1.247795427763E-01 -1.775249764211E-02
H5  1.748546315858E-01 -2.741460379073E-01 -4.015873247527E-01
H6 -1.748546315858E-01  2.258539620927E-01 -9.841267524733E-02
H7 -1.748546315858E-01  2.741460379073E-01  4.015873247527E-01
H8  1.748546315858E-01 -2.258539620927E-01  9.841267524733E-02
C9  8.648019515902E-02 -3.772171076342E-01  4.065532721944E-01
C10 -8.648019515902E-02  1.227828923658E-01  9.344672780556E-02
C11 -8.648019515902E-02  3.772171076342E-01 -4.065532721944E-01
C12  8.648019515902E-02 -1.227828923658E-01 -9.344672780556E-02
H13  4.512759329513E-02 -2.821340244627E-01  4.689842832480E-01
H14 -4.512759329513E-02  2.178659755373E-01  3.101571675204E-02
H15 -4.512759329513E-02  2.821340244627E-01 -4.689842832480E-01
H16  4.512759329513E-02 -2.178659755373E-01 -3.101571675204E-02
C17  6.575046634456E-02  4.985853089031E-01  2.563514862360E-01
C18 -6.575046634456E-02 -1.414691096910E-03  2.436485137640E-01
C19 -6.575046634456E-02 -4.985853089031E-01 -2.563514862360E-01
C20  6.575046634456E-02  1.414691096910E-03 -2.436485137640E-01
H21  8.072867902060E-03  4.959553804072E-01  1.969803439917E-01
H22 -8.072867902060E-03 -4.044619592812E-03  3.030196560083E-01
H23 -8.072867902060E-03 -4.959553804072E-01 -1.969803439917E-01
H24  8.072867902060E-03  4.044619592812E-03 -3.030196560083E-01
C25  1.183467710596E-01  3.757432372209E-01  1.831530634172E-01
C26 -1.183467710596E-01 -1.242567627791E-01  3.168469365828E-01
C27 -1.183467710596E-01 -3.757432372209E-01 -1.831530634172E-01
C28  1.183467710596E-01  1.242567627791E-01 -3.168469365828E-01
H29  1.023308849427E-01  2.754209268040E-01  6.655466384347E-02
H30 -1.023308849427E-01 -2.245790731960E-01  4.334453361565E-01
H31 -1.023308849427E-01 -2.754209268040E-01 -6.655466384347E-02
H32  1.023308849427E-01  2.245790731960E-01 -4.334453361565E-01
C33  1.909414881129E-01  3.750813705657E-01  2.620330551124E-01
C34 -1.909414881129E-01 -1.249186294343E-01  2.379669448876E-01
C35 -1.909414881129E-01 -3.750813705657E-01 -2.620330551124E-01
C36  1.909414881129E-01  1.249186294343E-01 -2.379669448876E-01
H37  2.311288972404E-01  2.773802463814E-01  2.074864829794E-01
H38 -2.311288972404E-01 -2.226197536186E-01  2.925135170206E-01
H39 -2.311288972404E-01 -2.773802463814E-01 -2.074864829794E-01
H40  2.311288972404E-01  2.226197536186E-01 -2.925135170206E-01
C41  2.125633413472E-01  4.993240497499E-01  4.125432613017E-01
C42 -2.125633413472E-01 -6.759502500620E-04  8.745673869827E-02
C43 -2.125633413472E-01 -4.993240497499E-01 -4.125432613017E-01
C44  2.125633413472E-01  6.759502500618E-04 -8.745673869827E-02
C45  2.903696383860E-01 -4.936683502755E-01  4.896857037888E-01
C46 -2.903696383860E-01  6.331649724477E-03  1.031429621120E-02
C47 -2.903696383860E-01  4.936683502755E-01 -4.896857037888E-01
C48  2.903696383860E-01 -6.331649724477E-03 -1.031429621120E-02
C49  3.045198982505E-01 -4.272357550803E-01 -3.015311626015E-01
C50 -3.045198982505E-01  7.276424491967E-02 -1.984688373985E-01
C51 -3.045198982505E-01  4.272357550803E-01  3.015311626015E-01
C52  3.045198982505E-01 -7.276424491967E-02  1.984688373985E-01
H53  2.566158940829E-01 -3.938461533835E-01 -1.947773394232E-01
H54 -2.566158940829E-01  1.061538466165E-01 -3.052226605768E-01
H55 -2.566158940829E-01  3.938461533835E-01  1.947773394232E-01
H56  2.566158940829E-01 -1.061538466165E-01  3.052226605768E-01
C57  3.759491327064E-01 -4.087521709019E-01 -2.305311309447E-01
C58 -3.759491327064E-01  9.124782909806E-02 -2.694688690553E-01
C59 -3.759491327064E-01  4.087521709019E-01  2.305311309447E-01
C60  3.759491327064E-01 -9.124782909806E-02  2.694688690553E-01
H61  3.853440049459E-01 -3.624538932037E-01 -6.721993791400E-02
H62 -3.853440049459E-01  1.375461067963E-01 -4.327800620860E-01
H63 -3.853440049459E-01  3.624538932037E-01  6.721993791400E-02
H64  3.853440049459E-01 -1.375461067963E-01  4.327800620860E-01
C65  4.393051152488E-01 -4.543024887488E-01 -3.623180732002E-01
C66 -4.393051152488E-01  4.569751125122E-02 -1.376819267998E-01
C67 -4.393051152488E-01  4.543024887488E-01  3.623180732002E-01
C68  4.393051152488E-01 -4.569751125122E-02  1.376819267998E-01
C69  4.258462200137E-01  4.776778303663E-01  4.283153766505E-01
C70 -4.258462200137E-01 -2.232216963371E-02  7.168462334948E-02
C71 -4.258462200137E-01 -4.776778303663E-01 -4.283153766505E-01
C72  4.258462200137E-01  2.232216963371E-02 -7.168462334948E-02
C73  3.505260688649E-01  4.601451861112E-01  3.604133104819E-01
C74 -3.505260688649E-01 -3.985481388880E-02  1.395866895181E-01
C75 -3.505260688649E-01 -4.601451861112E-01 -3.604133104819E-01
C76  3.505260688649E-01  3.985481388880E-02 -1.395866895181E-01
H77  3.418071859208E-01  4.186423966789E-01  1.949026204927E-01
H78 -3.418071859208E-01 -8.135760332108E-02  3.050973795073E-01
H79 -3.418071859208E-01 -4.186423966789E-01 -1.949026204927E-01
H80  3.418071859208E-01  8.135760332108E-02 -3.050973795073E-01
C81 -4.870432442809E-01 -4.341434778964E-01 -2.949338622252E-01
C82  4.870432442809E-01  6.585652210360E-02 -2.050661377748E-01
C83  4.870432442809E-01  4.341434778964E-01  2.949338622252E-01
C84 -4.870432442809E-01 -6.585652210360E-02  2.050661377748E-01
H85 -4.768881485337E-01 -3.830346475224E-01 -1.329377295558E-01
H86  4.768881485337E-01  1.169653524776E-01 -3.670622704442E-01
H87  4.768881485337E-01  3.830346475224E-01  1.329377295558E-01
H88 -4.768881485337E-01 -1.169653524776E-01  3.670622704442E-01


#===END

data_OPT_STEP_18

_symmetry_space_group_name_H-M 'P 1'
_cell_length_a     18.01620394
_cell_length_b      7.67640115
_cell_length_c      6.36890412
_cell_angle_alpha   90.000000
_cell_angle_beta   89.033179
_cell_angle_gamma   90.000000

loop_
_atom_site_label
_atom_site_fract_x
_atom_site_fract_y
_atom_site_fract_z
C1  1.599194087753E-01 -3.759122336667E-01  4.815721799772E-01
C2 -1.599194087753E-01  1.240877663333E-01  1.842782002279E-02
C3 -1.599194087753E-01  3.759122336667E-01 -4.815721799772E-01
C4  1.599194087753E-01 -1.240877663333E-01 -1.842782002279E-02
H5  1.755600611158E-01 -2.739058302310E-01 -4.031164594663E-01
H6 -1.755600611158E-01  2.260941697690E-01 -9.688354053368E-02
H7 -1.755600611158E-01  2.739058302310E-01  4.031164594663E-01
H8  1.755600611158E-01 -2.260941697690E-01  9.688354053368E-02
C9  8.701000094892E-02 -3.788875193401E-01  4.065719012720E-01
C10 -8.701000094892E-02  1.211124806599E-01  9.342809872801E-02
C11 -8.701000094892E-02  3.788875193401E-01 -4.065719012720E-01
C12  8.701000094892E-02 -1.211124806599E-01 -9.342809872801E-02
H13  4.571546151138E-02 -2.839418224153E-01  4.696000166477E-01
H14 -4.571546151138E-02  2.160581775847E-01  3.039998335234E-02
H15 -4.571546151138E-02  2.839418224153E-01 -4.696000166477E-01
H16  4.571546151138E-02 -2.160581775847E-01 -3.039998335234E-02
C17  6.634595514262E-02  4.986281999670E-01  2.543904875494E-01
C18 -6.634595514262E-02 -1.371800032955E-03  2.456095124506E-01
C19 -6.634595514262E-02 -4.986281999670E-01 -2.543904875494E-01
C20  6.634595514262E-02  1.371800032954E-03 -2.456095124506E-01
H21  8.664728608120E-03  4.964409804256E-01  1.947270869829E-01
H22 -8.664728608120E-03 -3.559019574418E-03  3.052729130171E-01
H23 -8.664728608120E-03 -4.964409804256E-01 -1.947270869829E-01
H24  8.664728608120E-03  3.559019574418E-03 -3.052729130171E-01
C25  1.188722340895E-01  3.765279193003E-01  1.801891911913E-01
C26 -1.188722340895E-01 -1.234720806997E-01  3.198108088087E-01
C27 -1.188722340895E-01 -3.765279193003E-01 -1.801891911913E-01
C28  1.188722340895E-01  1.234720806997E-01 -3.198108088087E-01
H29  1.026197455591E-01  2.752170251077E-01  6.456251377703E-02
H30 -1.026197455591E-01 -2.247829748923E-01  4.354374862230E-01
H31 -1.026197455591E-01 -2.752170251077E-01 -6.456251377703E-02
H32  1.026197455591E-01  2.247829748923E-01 -4.354374862230E-01
C33  1.916293346939E-01  3.778754304711E-01  2.571543556052E-01
C34 -1.916293346939E-01 -1.221245695289E-01  2.428456443948E-01
C35 -1.916293346939E-01 -3.778754304711E-01 -2.571543556052E-01
C36  1.916293346939E-01  1.221245695289E-01 -2.428456443948E-01
H37  2.310620859511E-01  2.767556729293E-01  2.067221559546E-01
H38 -2.310620859511E-01 -2.232443270707E-01  2.932778440454E-01
H39 -2.310620859511E-01 -2.767556729293E-01 -2.067221559546E-01
H40  2.310620859511E-01  2.232443270707E-01 -2.932778440454E-01
C41  2.132313288413E-01 -4.994039460710E-01  4.095730676163E-01
C42 -2.132313288413E-01  5.960539290309E-04  9.042693238371E-02
C43 -2.132313288413E-01  4.994039460710E-01 -4.095730676163E-01
C44  2.132313288413E-01 -5.960539290310E-04 -9.042693238371E-02
C45  2.908411476280E-01 -4.947214424352E-01  4.883826438945E-01
C46 -2.908411476280E-01  5.278557564761E-03  1.161735610546E-02
C47 -2.908411476280E-01  4.947214424352E-01 -4.883826438945E-01
C48  2.908411476280E-01 -5.278557564761E-03 -1.161735610546E-02
C49  3.050378054810E-01 -4.334438088833E-01 -3.011484140400E-01
C50 -3.050378054810E-01  6.655619111674E-02 -1.988515859600E-01
C51 -3.050378054810E-01  4.334438088833E-01  3.011484140400E-01
C52  3.050378054810E-01 -6.655619111674E-02  1.988515859600E-01
H53  2.573479348696E-01 -4.067636529032E-01 -1.924241082840E-01
H54 -2.573479348696E-01  9.323634709676E-02 -3.075758917160E-01
H55 -2.573479348696E-01  4.067636529032E-01  1.924241082840E-01
H56  2.573479348696E-01 -9.323634709676E-02  3.075758917160E-01
C57  3.763960418679E-01 -4.155029962505E-01 -2.296020139550E-01
C58 -3.763960418679E-01  8.449700374952E-02 -2.703979860450E-01
C59 -3.763960418679E-01  4.155029962505E-01  2.296020139550E-01
C60  3.763960418679E-01 -8.449700374952E-02  2.703979860450E-01
H61  3.860653993379E-01 -3.679436210895E-01 -6.707568938696E-02
H62 -3.860653993379E-01  1.320563789105E-01 -4.329243106130E-01
H63 -3.860653993379E-01  3.679436210895E-01  6.707568938696E-02
H64  3.860653993379E-01 -1.320563789105E-01  4.329243106130E-01
C65  4.395087985055E-01 -4.555207417153E-01 -3.628341597711E-01
C66 -4.395087985055E-01  4.447925828467E-02 -1.371658402289E-01
C67 -4.395087985055E-01  4.555207417153E-01  3.628341597711E-01
C68  4.395087985055E-01 -4.447925828467E-02  1.371658402289E-01
C69  4.259696878199E-01  4.760997164759E-01  4.285119883994E-01
C70 -4.259696878199E-01 -2.390028352411E-02  7.148801160061E-02
C71 -4.259696878199E-01 -4.760997164759E-01 -4.285119883994E-01
C72  4.259696878199E-01  2.390028352411E-02 -7.148801160061E-02
C73  3.507383146495E-01  4.595082228063E-01  3.597696888336E-01
C74 -3.507383146495E-01 -4.049177719366E-02  1.402303111664E-01
C75 -3.507383146495E-01 -4.595082228063E-01 -3.597696888336E-01
C76  3.507383146495E-01  4.049177719366E-02 -1.402303111664E-01
H77  3.418277327769E-01  4.171470834389E-01  1.949407060601E-01
H78 -3.418277327769E-01 -8.285291656107E-02  3.050592939399E-01
H79 -3.418277327769E-01 -4.171470834389E-01 -1.949407060601E-01
H80  3.418277327769E-01  8.285291656107E-02 -3.050592939399E-01
C81 -4.869586348303E-01 -4.326276631725E-01 -2.960730017592E-01
C82  4.869586348303E-01  6.737233682751E-02 -2.039269982408E-01
C83  4.869586348303E-01  4.326276631725E-01  2.960730017592E-01
C84 -4.869586348303E-01 -6.737233682751E-02  2.039269982408E-01
H85 -4.767258149532E-01 -3.765511778831E-01 -1.371519779403E-01
H86  4.767258149532E-01  1.234488221169E-01 -3.628480220597E-01
H87  4.767258149532E-01  3.765511778831E-01  1.371519779403E-01
H88 -4.767258149532E-01 -1.234488221169E-01  3.628480220597E-01


#===END

data_OPT_STEP_19

_symmetry_space_group_name_H-M 'P 1'
_cell_length_a     18.01319003
_cell_length_b      7.66691472
_cell_length_c      6.36581215
_cell_angle_alpha   90.000000
_cell_angle_beta   89.020553
_cell_angle_gamma   90.000000

loop_
_atom_site_label
_atom_site_fract_x
_atom_site_fract_y
_atom_site_fract_z
C1  1.598139218016E-01 -3.785034324509E-01  4.828658416194E-01
C2 -1.598139218016E-01  1.214965675491E-01  1.713415838056E-02
C3 -1.598139218016E-01  3.785034324509E-01 -4.828658416194E-01
C4  1.598139218016E-01 -1.214965675491E-01 -1.713415838056E-02
H5  1.757135959771E-01 -2.756284484711E-01 -4.026407200479E-01
H6 -1.757135959771E-01  2.243715515289E-01 -9.735927995212E-02
H7 -1.757135959771E-01  2.756284484711E-01  4.026407200479E-01
H8  1.757135959771E-01 -2.243715515289E-01  9.735927995212E-02
C9  8.686378513305E-02 -3.808397325947E-01  4.081268188293E-01
C10 -8.686378513305E-02  1.191602674053E-01  9.187318117068E-02
C11 -8.686378513305E-02  3.808397325947E-01 -4.081268188293E-01
C12  8.686378513305E-02 -1.191602674053E-01 -9.187318117068E-02
H13  4.578263020611E-02 -2.849485266595E-01  4.706832414469E-01
H14 -4.578263020611E-02  2.150514733405E-01  2.931675855312E-02
H15 -4.578263020611E-02  2.849485266595E-01 -4.706832414469E-01
H16  4.578263020611E-02 -2.150514733405E-01 -2.931675855312E-02
C17  6.601592426541E-02  4.967801432106E-01  2.557615344278E-01
C18 -6.601592426541E-02 -3.219856789379E-03  2.442384655722E-01
C19 -6.601592426541E-02 -4.967801432106E-01 -2.557615344278E-01
C20  6.601592426541E-02  3.219856789379E-03 -2.442384655722E-01
H21  8.364918540920E-03  4.950525390097E-01  1.960425380060E-01
H22 -8.364918540920E-03 -4.947460990336E-03  3.039574619940E-01
H23 -8.364918540920E-03 -4.950525390097E-01 -1.960425380060E-01
H24  8.364918540920E-03  4.947460990336E-03 -3.039574619940E-01
C25  1.184707346836E-01  3.747719184824E-01  1.807654547613E-01
C26 -1.184707346836E-01 -1.252280815176E-01  3.192345452387E-01
C27 -1.184707346836E-01 -3.747719184824E-01 -1.807654547613E-01
C28  1.184707346836E-01  1.252280815176E-01 -3.192345452387E-01
H29  1.021173676439E-01  2.733080497753E-01  6.520155828050E-02
H30 -1.021173676439E-01 -2.266919502247E-01  4.347984417195E-01
H31 -1.021173676439E-01 -2.733080497753E-01 -6.520155828050E-02
H32  1.021173676439E-01  2.266919502247E-01 -4.347984417195E-01
C33  1.913511769829E-01  3.763531828780E-01  2.568616130213E-01
C34 -1.913511769829E-01 -1.236468171220E-01  2.431383869787E-01
C35 -1.913511769829E-01 -3.763531828780E-01 -2.568616130213E-01
C36  1.913511769829E-01  1.236468171220E-01 -2.431383869787E-01
H37  2.308105357245E-01  2.751021990070E-01  2.053709684352E-01
H38 -2.308105357245E-01 -2.248978009930E-01  2.946290315648E-01
H39 -2.308105357245E-01 -2.751021990070E-01 -2.053709684352E-01
H40  2.308105357245E-01  2.248978009930E-01 -2.946290315648E-01
C41  2.131883803592E-01  4.995586319310E-01  4.088077146870E-01
C42 -2.131883803592E-01 -4.413680689526E-04  9.119228531305E-02
C43 -2.131883803592E-01 -4.995586319310E-01 -4.088077146870E-01
C44  2.131883803592E-01  4.413680689524E-04 -9.119228531305E-02
C45  2.908079734747E-01 -4.959616909593E-01  4.876473296155E-01
C46 -2.908079734747E-01  4.038309040732E-03  1.235267038453E-02
C47 -2.908079734747E-01  4.959616909593E-01 -4.876473296155E-01
C48  2.908079734747E-01 -4.038309040732E-03 -1.235267038453E-02
C49  3.048526636311E-01 -4.362274942803E-01 -3.010493922330E-01
C50 -3.048526636311E-01  6.377250571973E-02 -1.989506077670E-01
C51 -3.048526636311E-01  4.362274942803E-01  3.010493922330E-01
C52  3.048526636311E-01 -6.377250571973E-02  1.989506077670E-01
H53  2.570767709510E-01 -4.077732430676E-01 -1.932431852067E-01
H54 -2.570767709510E-01  9.222675693239E-02 -3.067568147933E-01
H55 -2.570767709510E-01  4.077732430676E-01  1.932431852067E-01
H56  2.570767709510E-01 -9.222675693239E-02  3.067568147933E-01
C57  3.761749298606E-01 -4.159904754080E-01 -2.299493573603E-01
C58 -3.761749298606E-01  8.400952459199E-02 -2.700506426397E-01
C59 -3.761749298606E-01  4.159904754080E-01  2.299493573603E-01
C60  3.761749298606E-01 -8.400952459199E-02  2.700506426397E-01
H61  3.856758056208E-01 -3.681822081188E-01 -6.749837434497E-02
H62 -3.856758056208E-01  1.318177918812E-01 -4.325016256550E-01
H63 -3.856758056208E-01  3.681822081188E-01  6.749837434497E-02
H64  3.856758056208E-01 -1.318177918812E-01  4.325016256550E-01
C65  4.394025125275E-01 -4.564394357507E-01 -3.627318933124E-01
C66 -4.394025125275E-01  4.356056424928E-02 -1.372681066876E-01
C67 -4.394025125275E-01  4.564394357507E-01  3.627318933124E-01
C68  4.394025125275E-01 -4.356056424928E-02  1.372681066876E-01
C69  4.259990662212E-01  4.751123940478E-01  4.283855637510E-01
C70 -4.259990662212E-01 -2.488760595215E-02  7.161443624900E-02
C71 -4.259990662212E-01 -4.751123940478E-01 -4.283855637510E-01
C72  4.259990662212E-01  2.488760595215E-02 -7.161443624900E-02
C73  3.507953622850E-01  4.578890870789E-01  3.593786935311E-01
C74 -3.507953622850E-01 -4.211091292109E-02  1.406213064689E-01
C75 -3.507953622850E-01 -4.578890870789E-01 -3.593786935311E-01
C76  3.507953622850E-01  4.211091292109E-02 -1.406213064689E-01
H77  3.420131882725E-01  4.149490868031E-01  1.947149934412E-01
H78 -3.420131882725E-01 -8.505091319694E-02  3.052850065588E-01
H79 -3.420131882725E-01 -4.149490868031E-01 -1.947149934412E-01
H80  3.420131882725E-01  8.505091319694E-02 -3.052850065588E-01
C81 -4.871129563694E-01 -4.315053868652E-01 -2.963864586152E-01
C82  4.871129563694E-01  6.849461313477E-02 -2.036135413848E-01
C83  4.871129563694E-01  4.315053868652E-01  2.963864586152E-01
C84 -4.871129563694E-01 -6.849461313477E-02  2.036135413848E-01
H85 -4.770279743133E-01 -3.760531718680E-01 -1.369995052413E-01
H86  4.770279743133E-01  1.239468281320E-01 -3.630004947587E-01
H87  4.770279743133E-01  3.760531718680E-01  1.369995052413E-01
H88 -4.770279743133E-01 -1.239468281320E-01  3.630004947587E-01


#===END

data_OPT_STEP_20

_symmetry_space_group_name_H-M 'P 1'
_cell_length_a     18.00943105
_cell_length_b      7.68547638
_cell_length_c      6.36464499
_cell_angle_alpha   90.000000
_cell_angle_beta   89.015736
_cell_angle_gamma   90.000000

loop_
_atom_site_label
_atom_site_fract_x
_atom_site_fract_y
_atom_site_fract_z
C1  1.597802043524E-01 -3.771146270375E-01  4.817181153839E-01
C2 -1.597802043524E-01  1.228853729625E-01  1.828188461614E-02
C3 -1.597802043524E-01  3.771146270375E-01 -4.817181153839E-01
C4  1.597802043524E-01 -1.228853729625E-01 -1.828188461614E-02
H5  1.757630825953E-01 -2.742745299470E-01 -4.042244830229E-01
H6 -1.757630825953E-01  2.257254700530E-01 -9.577551697713E-02
H7 -1.757630825953E-01  2.742745299470E-01  4.042244830229E-01
H8  1.757630825953E-01 -2.257254700530E-01  9.577551697713E-02
C9  8.668065405749E-02 -3.802470459398E-01  4.081873278395E-01
C10 -8.668065405749E-02  1.197529540602E-01  9.181267216047E-02
C11 -8.668065405749E-02  3.802470459398E-01 -4.081873278395E-01
C12  8.668065405749E-02 -1.197529540602E-01 -9.181267216047E-02
H13  4.578413744017E-02 -2.839205155286E-01  4.702537161137E-01
H14 -4.578413744017E-02  2.160794844714E-01  2.974628388629E-02
H15 -4.578413744017E-02  2.839205155286E-01 -4.702537161137E-01
H16  4.578413744017E-02 -2.160794844714E-01 -2.974628388629E-02
C17  6.557915286306E-02  4.960846188774E-01  2.572035230521E-01
C18 -6.557915286306E-02 -3.915381122620E-03  2.427964769479E-01
C19 -6.557915286306E-02 -4.960846188774E-01 -2.572035230521E-01
C20  6.557915286306E-02  3.915381122620E-03 -2.427964769479E-01
H21  7.963456259402E-03  4.945223058316E-01  1.975474199316E-01
H22 -7.963456259402E-03 -5.477694168380E-03  3.024525800684E-01
H23 -7.963456259402E-03 -4.945223058316E-01 -1.975474199316E-01
H24  7.963456259402E-03  5.477694168380E-03 -3.024525800684E-01
C25  1.181063603259E-01  3.747844425061E-01  1.815410000936E-01
C26 -1.181063603259E-01 -1.252155574939E-01  3.184589999064E-01
C27 -1.181063603259E-01 -3.747844425061E-01 -1.815410000936E-01
C28  1.181063603259E-01  1.252155574939E-01 -3.184589999064E-01
H29  1.019383456308E-01  2.750154318789E-01  6.474115435005E-02
H30 -1.019383456308E-01 -2.249845681211E-01  4.352588456500E-01
H31 -1.019383456308E-01 -2.750154318789E-01 -6.474115435005E-02
H32  1.019383456308E-01  2.249845681211E-01 -4.352588456500E-01
C33  1.910765229556E-01  3.768040599008E-01  2.568704965746E-01
C34 -1.910765229556E-01 -1.231959400992E-01  2.431295034254E-01
C35 -1.910765229556E-01 -3.768040599008E-01 -2.568704965746E-01
C36  1.910765229556E-01  1.231959400992E-01 -2.431295034254E-01
H37  2.305410641564E-01  2.751084770861E-01  2.049192565200E-01
H38 -2.305410641564E-01 -2.248915229139E-01  2.950807434800E-01
H39 -2.305410641564E-01 -2.751084770861E-01 -2.049192565200E-01
H40  2.305410641564E-01  2.248915229139E-01 -2.950807434800E-01
C41  2.130810928406E-01 -4.994333230954E-01  4.080439219685E-01
C42 -2.130810928406E-01  5.666769046275E-04  9.195607803154E-02
C43 -2.130810928406E-01  4.994333230954E-01 -4.080439219685E-01
C44  2.130810928406E-01 -5.666769046277E-04 -9.195607803154E-02
C45  2.907595026075E-01 -4.945612372315E-01  4.866593485452E-01
C46 -2.907595026075E-01  5.438762768519E-03  1.334065145480E-02
C47 -2.907595026075E-01  4.945612372315E-01 -4.866593485452E-01
C48  2.907595026075E-01 -5.438762768519E-03 -1.334065145480E-02
C49  3.047928530534E-01 -4.347546979550E-01 -3.020174260892E-01
C50 -3.047928530534E-01  6.524530204498E-02 -1.979825739108E-01
C51 -3.047928530534E-01  4.347546979550E-01  3.020174260892E-01
C52  3.047928530534E-01 -6.524530204498E-02  1.979825739108E-01
H53  2.570383093583E-01 -4.039389935086E-01 -1.953154462910E-01
H54 -2.570383093583E-01  9.606100649142E-02 -3.046845537090E-01
H55 -2.570383093583E-01  4.039389935086E-01  1.953154462910E-01
H56  2.570383093583E-01 -9.606100649142E-02  3.046845537090E-01
C57  3.761034408298E-01 -4.159976066359E-01 -2.302003472046E-01
C58 -3.761034408298E-01  8.400239336407E-02 -2.697996527954E-01
C59 -3.761034408298E-01  4.159976066359E-01  2.302003472046E-01
C60  3.761034408298E-01 -8.400239336407E-02  2.697996527954E-01
H61  3.855329655455E-01 -3.680458037648E-01 -6.800116823731E-02
H62 -3.855329655455E-01  1.319541962352E-01 -4.319988317627E-01
H63 -3.855329655455E-01  3.680458037648E-01  6.800116823731E-02
H64  3.855329655455E-01 -1.319541962352E-01  4.319988317627E-01
C65  4.393653334372E-01 -4.570646842347E-01 -3.626720903405E-01
C66 -4.393653334372E-01  4.293531576526E-02 -1.373279096595E-01
C67 -4.393653334372E-01  4.570646842347E-01  3.626720903405E-01
C68  4.393653334372E-01 -4.293531576526E-02  1.373279096595E-01
C69  4.259639968779E-01  4.751872445539E-01  4.281576950062E-01
C70 -4.259639968779E-01 -2.481275544611E-02  7.184230499380E-02
C71 -4.259639968779E-01 -4.751872445539E-01 -4.281576950062E-01
C72  4.259639968779E-01  2.481275544611E-02 -7.184230499380E-02
C73  3.507447097296E-01  4.582497837553E-01  3.589131972222E-01
C74 -3.507447097296E-01 -4.175021624470E-02  1.410868027778E-01
C75 -3.507447097296E-01 -4.582497837553E-01 -3.589131972222E-01
C76  3.507447097296E-01  4.175021624470E-02 -1.410868027778E-01
H77  3.419950112652E-01  4.146252029049E-01  1.946736405797E-01
H78 -3.419950112652E-01 -8.537479709513E-02  3.053263594203E-01
H79 -3.419950112652E-01 -4.146252029049E-01 -1.946736405797E-01
H80  3.419950112652E-01  8.537479709513E-02 -3.053263594203E-01
C81 -4.871251155186E-01 -4.329224950022E-01 -2.958034990827E-01
C82  4.871251155186E-01  6.707750499778E-02 -2.041965009173E-01
C83  4.871251155186E-01  4.329224950022E-01  2.958034990827E-01
C84 -4.871251155186E-01 -6.707750499778E-02  2.041965009173E-01
H85 -4.771264592286E-01 -3.792063422142E-01 -1.358476925684E-01
H86  4.771264592286E-01  1.207936577858E-01 -3.641523074316E-01
H87  4.771264592286E-01  3.792063422142E-01  1.358476925684E-01
H88 -4.771264592286E-01 -1.207936577858E-01  3.641523074316E-01


#===END

data_OPT_STEP_21

_symmetry_space_group_name_H-M 'P 1'
_cell_length_a     18.01370205
_cell_length_b      7.66882799
_cell_length_c      6.36058103
_cell_angle_alpha   90.000000
_cell_angle_beta   89.044105
_cell_angle_gamma   90.000000

loop_
_atom_site_label
_atom_site_fract_x
_atom_site_fract_y
_atom_site_fract_z
C1  1.596071474064E-01 -3.777218858874E-01  4.822690531719E-01
C2 -1.596071474064E-01  1.222781141126E-01  1.773094682814E-02
C3 -1.596071474064E-01  3.777218858874E-01 -4.822690531719E-01
C4  1.596071474064E-01 -1.222781141126E-01 -1.773094682814E-02
H5  1.754299594483E-01 -2.763668152883E-01 -4.022013384369E-01
H6 -1.754299594483E-01  2.236331847117E-01 -9.779866156305E-02
H7 -1.754299594483E-01  2.763668152883E-01  4.022013384369E-01
H8  1.754299594483E-01 -2.236331847117E-01  9.779866156305E-02
C9  8.656481060172E-02 -3.802281079716E-01  4.083876083801E-01
C10 -8.656481060172E-02  1.197718920284E-01  9.161239161993E-02
C11 -8.656481060172E-02  3.802281079716E-01 -4.083876083801E-01
C12  8.656481060172E-02 -1.197718920284E-01 -9.161239161993E-02
H13  4.579574718805E-02 -2.834760837145E-01  4.700922155628E-01
H14 -4.579574718805E-02  2.165239162855E-01  2.990778443724E-02
H15 -4.579574718805E-02  2.834760837145E-01 -4.700922155628E-01
H16  4.579574718805E-02 -2.165239162855E-01 -2.990778443724E-02
C17  6.528810856187E-02  4.952713222694E-01  2.579281992201E-01
C18 -6.528810856187E-02 -4.728677730627E-03  2.420718007799E-01
C19 -6.528810856187E-02 -4.952713222694E-01 -2.579281992201E-01
C20  6.528810856187E-02  4.728677730626E-03 -2.420718007799E-01
H21  7.629470505907E-03  4.938566920696E-01  1.987166023636E-01
H22 -7.629470505907E-03 -6.143307930422E-03  3.012833976364E-01
H23 -7.629470505907E-03 -4.938566920696E-01 -1.987166023636E-01
H24  7.629470505907E-03  6.143307930422E-03 -3.012833976364E-01
C25  1.177824274244E-01  3.733434322399E-01  1.822899049411E-01
C26 -1.177824274244E-01 -1.266565677601E-01  3.177100950589E-01
C27 -1.177824274244E-01 -3.733434322399E-01 -1.822899049411E-01
C28  1.177824274244E-01  1.266565677601E-01 -3.177100950589E-01
H29  1.015912751691E-01  2.729465255143E-01  6.581793726753E-02
H30 -1.015912751691E-01 -2.270534744857E-01  4.341820627325E-01
H31 -1.015912751691E-01 -2.729465255143E-01 -6.581793726753E-02
H32  1.015912751691E-01  2.270534744857E-01 -4.341820627325E-01
C33  1.907725346517E-01  3.751834923057E-01  2.574572445688E-01
C34 -1.907725346517E-01 -1.248165076943E-01  2.425427554312E-01
C35 -1.907725346517E-01 -3.751834923057E-01 -2.574572445688E-01
C36  1.907725346517E-01  1.248165076943E-01 -2.425427554312E-01
H37  2.304252233003E-01  2.740773727218E-01  2.034656662282E-01
H38 -2.304252233003E-01 -2.259226272782E-01  2.965343337718E-01
H39 -2.304252233003E-01 -2.740773727218E-01 -2.034656662282E-01
H40  2.304252233003E-01  2.259226272782E-01 -2.965343337718E-01
C41  2.130013775292E-01 -4.995247403533E-01  4.076754944714E-01
C42 -2.130013775292E-01  4.752596466598E-04  9.232450552855E-02
C43 -2.130013775292E-01  4.995247403533E-01 -4.076754944714E-01
C44  2.130013775292E-01 -4.752596466599E-04 -9.232450552855E-02
C45  2.907754044552E-01 -4.936634730111E-01  4.857750513624E-01
C46 -2.907754044552E-01  6.336526988895E-03  1.422494863764E-02
C47 -2.907754044552E-01  4.936634730111E-01 -4.857750513624E-01
C48  2.907754044552E-01 -6.336526988896E-03 -1.422494863764E-02
C49  3.048418945389E-01 -4.334246627836E-01 -3.028105669492E-01
C50 -3.048418945389E-01  6.657533721640E-02 -1.971894330508E-01
C51 -3.048418945389E-01  4.334246627836E-01  3.028105669492E-01
C52  3.048418945389E-01 -6.657533721640E-02  1.971894330508E-01
H53  2.571080223626E-01 -4.038846679481E-01 -1.955522014480E-01
H54 -2.571080223626E-01  9.611533205185E-02 -3.044477985520E-01
H55 -2.571080223626E-01  4.038846679481E-01  1.955522014480E-01
H56  2.571080223626E-01 -9.611533205185E-02  3.044477985520E-01
C57  3.761310838807E-01 -4.138746772769E-01 -2.311001963711E-01
C58 -3.761310838806E-01  8.612532272315E-02 -2.688998036289E-01
C59 -3.761310838806E-01  4.138746772769E-01  2.311001963711E-01
C60  3.761310838806E-01 -8.612532272315E-02  2.688998036289E-01
H61  3.855013097866E-01 -3.655808665309E-01 -6.896891607507E-02
H62 -3.855013097866E-01  1.344191334691E-01 -4.310310839249E-01
H63 -3.855013097866E-01  3.655808665309E-01  6.896891607507E-02
H64  3.855013097866E-01 -1.344191334691E-01  4.310310839249E-01
C65  4.393666372902E-01 -4.559011662066E-01 -3.632468874279E-01
C66 -4.393666372902E-01  4.409883379342E-02 -1.367531125721E-01
C67 -4.393666372902E-01  4.559011662066E-01  3.632468874279E-01
C68  4.393666372902E-01 -4.409883379342E-02  1.367531125721E-01
C69  4.259440878218E-01  4.754604133762E-01  4.277926043607E-01
C70 -4.259440878218E-01 -2.453958662384E-02  7.220739563932E-02
C71 -4.259440878218E-01 -4.754604133762E-01 -4.277926043607E-01
C72  4.259440878218E-01  2.453958662384E-02 -7.220739563932E-02
C73  3.507479896149E-01  4.592561836439E-01  3.579266752923E-01
C74 -3.507479896149E-01 -4.074381635608E-02  1.420733247077E-01
C75 -3.507479896149E-01 -4.592561836439E-01 -3.579266752923E-01
C76  3.507479896149E-01  4.074381635608E-02 -1.420733247077E-01
H77  3.420350278531E-01  4.148901630797E-01  1.938141430412E-01
H78 -3.420350278531E-01 -8.510983692031E-02  3.061858569588E-01
H79 -3.420350278531E-01 -4.148901630797E-01 -1.938141430412E-01
H80  3.420350278531E-01  8.510983692031E-02 -3.061858569588E-01
C81 -4.871234311140E-01 -4.319176115983E-01 -2.961011236921E-01
C82  4.871234311140E-01  6.808238840166E-02 -2.038988763079E-01
C83  4.871234311140E-01  4.319176115983E-01  2.961011236921E-01
C84 -4.871234311140E-01 -6.808238840166E-02  2.038988763079E-01
H85 -4.772068020816E-01 -3.771257275779E-01 -1.366061648890E-01
H86  4.772068020816E-01  1.228742724221E-01 -3.633938351110E-01
H87  4.772068020816E-01  3.771257275779E-01  1.366061648890E-01
H88 -4.772068020816E-01 -1.228742724221E-01  3.633938351110E-01


#===END

data_OPT_STEP_22

_symmetry_space_group_name_H-M 'P 1'
_cell_length_a     18.01972214
_cell_length_b      7.65245875
_cell_length_c      6.35979149
_cell_angle_alpha   90.000000
_cell_angle_beta   89.093934
_cell_angle_gamma   90.000000

loop_
_atom_site_label
_atom_site_fract_x
_atom_site_fract_y
_atom_site_fract_z
C1  1.597452478436E-01 -3.766256557805E-01  4.806793412544E-01
C2 -1.597452478436E-01  1.233743442195E-01  1.932065874565E-02
C3 -1.597452478436E-01  3.766256557805E-01 -4.806793412543E-01
C4  1.597452478436E-01 -1.233743442195E-01 -1.932065874565E-02
H5  1.756605774466E-01 -2.745556693261E-01 -4.043962822098E-01
H6 -1.756605774466E-01  2.254443306739E-01 -9.560371779021E-02
H7 -1.756605774466E-01  2.745556693261E-01  4.043962822098E-01
H8  1.756605774466E-01 -2.254443306739E-01  9.560371779021E-02
C9  8.657251657279E-02 -3.802424777847E-01  4.079968551769E-01
C10 -8.657251657279E-02  1.197575222153E-01  9.200314482307E-02
C11 -8.657251657279E-02  3.802424777847E-01 -4.079968551769E-01
C12  8.657251657279E-02 -1.197575222153E-01 -9.200314482307E-02
H13  4.584636829323E-02 -2.835845816384E-01  4.697104571818E-01
H14 -4.584636829323E-02  2.164154183616E-01  3.028954281821E-02
H15 -4.584636829323E-02  2.835845816384E-01 -4.697104571818E-01
H16  4.584636829323E-02 -2.164154183616E-01 -3.028954281821E-02
C17  6.525887073467E-02  4.957164204033E-01  2.570410329010E-01
C18 -6.525887073467E-02 -4.283579596742E-03  2.429589670990E-01
C19 -6.525887073467E-02 -4.957164204033E-01 -2.570410329010E-01
C20  6.525887073467E-02  4.283579596741E-03 -2.429589670990E-01
H21  7.502144793928E-03  4.939045132399E-01  1.987870042248E-01
H22 -7.502144793928E-03 -6.095486760141E-03  3.012129957752E-01
H23 -7.502144793928E-03 -4.939045132399E-01 -1.987870042248E-01
H24  7.502144793928E-03  6.095486760140E-03 -3.012129957752E-01
C25  1.178451162560E-01  3.748046372542E-01  1.799999798975E-01
C26 -1.178451162560E-01 -1.251953627458E-01  3.200000201025E-01
C27 -1.178451162560E-01 -3.748046372542E-01 -1.799999798975E-01
C28  1.178451162560E-01  1.251953627458E-01 -3.200000201025E-01
H29  1.016958128570E-01  2.748549651359E-01  6.296290514908E-02
H30 -1.016958128570E-01 -2.251450348641E-01  4.370370948509E-01
H31 -1.016958128570E-01 -2.748549651359E-01 -6.296290514908E-02
H32  1.016958128570E-01  2.251450348641E-01 -4.370370948509E-01
C33  1.908107103673E-01  3.760530117517E-01  2.553526990980E-01
C34 -1.908107103673E-01 -1.239469882483E-01  2.446473009020E-01
C35 -1.908107103673E-01 -3.760530117517E-01 -2.553526990980E-01
C36  1.908107103673E-01  1.239469882483E-01 -2.446473009020E-01
H37  2.305885177739E-01  2.753529558866E-01  1.998320312757E-01
H38 -2.305885177739E-01 -2.246470441134E-01  3.001679687243E-01
H39 -2.305885177739E-01 -2.753529558866E-01 -1.998320312757E-01
H40  2.305885177739E-01  2.246470441134E-01 -3.001679687243E-01
C41  2.131347643412E-01 -4.984832131957E-01  4.057120993932E-01
C42 -2.131347643412E-01  1.516786804307E-03  9.428790060676E-02
C43 -2.131347643412E-01  4.984832131957E-01 -4.057120993932E-01
C44  2.131347643412E-01 -1.516786804307E-03 -9.428790060676E-02
C45  2.908465360403E-01 -4.934235404970E-01  4.844925726833E-01
C46 -2.908465360403E-01  6.576459502966E-03  1.550742731674E-02
C47 -2.908465360403E-01  4.934235404970E-01 -4.844925726833E-01
C48  2.908465360403E-01 -6.576459502966E-03 -1.550742731674E-02
C49  3.048510523763E-01 -4.329890446700E-01 -3.039808771507E-01
C50 -3.048510523763E-01  6.701095533000E-02 -1.960191228493E-01
C51 -3.048510523763E-01  4.329890446700E-01  3.039808771507E-01
C52  3.048510523763E-01 -6.701095533000E-02  1.960191228493E-01
H53  2.571132009321E-01 -4.039409553683E-01 -1.966934590085E-01
H54 -2.571132009321E-01  9.605904463167E-02 -3.033065409915E-01
H55 -2.571132009321E-01  4.039409553683E-01  1.966934590085E-01
H56  2.571132009321E-01 -9.605904463167E-02  3.033065409915E-01
C57  3.760888000909E-01 -4.127522717079E-01 -2.321143154732E-01
C58 -3.760888000909E-01  8.724772829208E-02 -2.678856845268E-01
C59 -3.760888000909E-01  4.127522717079E-01  2.321143154732E-01
C60  3.760888000909E-01 -8.724772829208E-02  2.678856845268E-01
H61  3.853866139584E-01 -3.641788889730E-01 -7.004304417676E-02
H62 -3.853866139584E-01  1.358211110270E-01 -4.299569558232E-01
H63 -3.853866139584E-01  3.641788889730E-01  7.004304417676E-02
H64  3.853866139584E-01 -1.358211110270E-01  4.299569558232E-01
C65  4.393352622074E-01 -4.554227397514E-01 -3.637475408503E-01
C66 -4.393352622074E-01  4.457726024861E-02 -1.362524591497E-01
C67 -4.393352622074E-01  4.554227397514E-01  3.637475408503E-01
C68  4.393352622074E-01 -4.457726024861E-02  1.362524591497E-01
C69  4.259781594706E-01  4.756205610320E-01  4.272731700673E-01
C70 -4.259781594706E-01 -2.437943896795E-02  7.272682993266E-02
C71 -4.259781594706E-01 -4.756205610320E-01 -4.272731700673E-01
C72  4.259781594706E-01  2.437943896795E-02 -7.272682993266E-02
C73  3.508299410858E-01  4.591152421012E-01  3.570721807774E-01
C74 -3.508299410858E-01 -4.088475789876E-02  1.429278192226E-01
C75 -3.508299410858E-01 -4.591152421012E-01 -3.570721807774E-01
C76  3.508299410858E-01  4.088475789876E-02 -1.429278192226E-01
H77  3.421727018250E-01  4.141656554458E-01  1.930659157978E-01
H78 -3.421727018250E-01 -8.583434455422E-02  3.069340842022E-01
H79 -3.421727018250E-01 -4.141656554458E-01 -1.930659157978E-01
H80  3.421727018250E-01  8.583434455422E-02 -3.069340842022E-01
C81 -4.871948667687E-01 -4.318960264976E-01 -2.959618015628E-01
C82  4.871948667687E-01  6.810397350239E-02 -2.040381984372E-01
C83  4.871948667687E-01  4.318960264976E-01  2.959618015628E-01
C84 -4.871948667687E-01 -6.810397350239E-02  2.040381984372E-01
H85 -4.773649295361E-01 -3.779778263531E-01 -1.360049805217E-01
H86  4.773649295361E-01  1.220221736469E-01 -3.639950194783E-01
H87  4.773649295361E-01  3.779778263531E-01  1.360049805217E-01
H88 -4.773649295361E-01 -1.220221736469E-01  3.639950194783E-01


#===END

data_OPT_STEP_23

_symmetry_space_group_name_H-M 'P 1'
_cell_length_a     18.02388638
_cell_length_b      7.65557851
_cell_length_c      6.35716801
_cell_angle_alpha   90.000000
_cell_angle_beta   89.256671
_cell_angle_gamma   90.000000

loop_
_atom_site_label
_atom_site_fract_x
_atom_site_fract_y
_atom_site_fract_z
C1  1.597407033779E-01 -3.767637408410E-01  4.807897343163E-01
C2 -1.597407033779E-01  1.232362591590E-01  1.921026568375E-02
C3 -1.597407033779E-01  3.767637408410E-01 -4.807897343163E-01
C4  1.597407033779E-01 -1.232362591590E-01 -1.921026568375E-02
H5  1.756839490788E-01 -2.752495527882E-01 -4.037983528669E-01
H6 -1.756839490788E-01  2.247504472118E-01 -9.620164713310E-02
H7 -1.756839490788E-01  2.752495527882E-01  4.037983528669E-01
H8  1.756839490788E-01 -2.247504472118E-01  9.620164713310E-02
C9  8.656410764754E-02 -3.798481431746E-01  4.076540646274E-01
C10 -8.656410764754E-02  1.201518568254E-01  9.234593537262E-02
C11 -8.656410764754E-02  3.798481431746E-01 -4.076540646274E-01
C12  8.656410764754E-02 -1.201518568254E-01 -9.234593537262E-02
H13  4.592153751244E-02 -2.833736866917E-01  4.692149126170E-01
H14 -4.592153751244E-02  2.166263133083E-01  3.078508738299E-02
H15 -4.592153751244E-02  2.833736866917E-01 -4.692149126170E-01
H16  4.592153751244E-02 -2.166263133083E-01 -3.078508738299E-02
C17  6.512073969004E-02  4.966601346300E-01  2.562874114684E-01
C18 -6.512073969004E-02 -3.339865370041E-03  2.437125885316E-01
C19 -6.512073969004E-02 -4.966601346300E-01 -2.562874114684E-01
C20  6.512073969004E-02  3.339865370040E-03 -2.437125885316E-01
H21  7.216822092854E-03  4.942437135780E-01  1.990639267786E-01
H22 -7.216822092854E-03 -5.756286421965E-03  3.009360732214E-01
H23 -7.216822092854E-03 -4.942437135780E-01 -1.990639267786E-01
H24  7.216822092854E-03  5.756286421965E-03 -3.009360732214E-01
C25  1.176616454874E-01  3.759393606771E-01  1.787926375949E-01
C26 -1.176616454874E-01 -1.240606393229E-01  3.212073624051E-01
C27 -1.176616454874E-01 -3.759393606771E-01 -1.787926375949E-01
C28  1.176616454874E-01  1.240606393229E-01 -3.212073624051E-01
H29  1.014644343753E-01  2.762226651500E-01  6.145436064415E-02
H30 -1.014644343753E-01 -2.237773348500E-01  4.385456393559E-01
H31 -1.014644343753E-01 -2.762226651500E-01 -6.145436064415E-02
H32  1.014644343753E-01  2.237773348500E-01 -4.385456393559E-01
C33  1.907725487940E-01  3.777926667836E-01  2.533781479617E-01
C34 -1.907725487940E-01 -1.222073332164E-01  2.466218520383E-01
C35 -1.907725487940E-01 -3.777926667836E-01 -2.533781479617E-01
C36  1.907725487940E-01  1.222073332164E-01 -2.466218520383E-01
H37  2.307010968653E-01  2.775798077893E-01  1.961296018148E-01
H38 -2.307010968653E-01 -2.224201922107E-01  3.038703981852E-01
H39 -2.307010968653E-01 -2.775798077893E-01 -1.961296018148E-01
H40  2.307010968653E-01  2.224201922107E-01 -3.038703981852E-01
C41  2.131640809696E-01 -4.978068093195E-01  4.048690308923E-01
C42 -2.131640809696E-01  2.193190680457E-03  9.513096910769E-02
C43 -2.131640809696E-01  4.978068093195E-01 -4.048690308923E-01
C44  2.131640809696E-01 -2.193190680457E-03 -9.513096910769E-02
C45  2.909108951796E-01 -4.931664968235E-01  4.840015465405E-01
C46 -2.909108951796E-01  6.833503176514E-03  1.599845345955E-02
C47 -2.909108951796E-01  4.931664968235E-01 -4.840015465405E-01
C48  2.909108951796E-01 -6.833503176514E-03 -1.599845345955E-02
C49  3.050939112039E-01 -4.315593457183E-01 -3.048310771766E-01
C50 -3.050939112039E-01  6.844065428173E-02 -1.951689228234E-01
C51 -3.050939112039E-01  4.315593457183E-01  3.048310771766E-01
C52  3.050939112039E-01 -6.844065428173E-02  1.951689228234E-01
H53  2.574615409903E-01 -4.004249741700E-01 -1.984345721151E-01
H54 -2.574615409903E-01  9.957502583002E-02 -3.015654278849E-01
H55 -2.574615409903E-01  4.004249741700E-01  1.984345721151E-01
H56  2.574615409903E-01 -9.957502583002E-02  3.015654278849E-01
C57  3.763582001493E-01 -4.122865481900E-01 -2.323753108069E-01
C58 -3.763582001493E-01  8.771345181002E-02 -2.676246891931E-01
C59 -3.763582001493E-01  4.122865481900E-01  2.323753108069E-01
C60  3.763582001493E-01 -8.771345181002E-02  2.676246891931E-01
H61  3.857438994585E-01 -3.638208611566E-01 -7.022411546101E-02
H62 -3.857438994585E-01  1.361791388434E-01 -4.297758845390E-01
H63 -3.857438994585E-01  3.638208611566E-01  7.022411546101E-02
H64  3.857438994585E-01 -1.361791388434E-01  4.297758845390E-01
C65  4.394647911347E-01 -4.553467134559E-01 -3.638166510094E-01
C66 -4.394647911347E-01  4.465328654407E-02 -1.361833489906E-01
C67 -4.394647911347E-01  4.553467134559E-01  3.638166510094E-01
C68  4.394647911347E-01 -4.465328654407E-02  1.361833489906E-01
C69  4.259383771045E-01  4.750782011471E-01  4.274027899078E-01
C70 -4.259383771045E-01 -2.492179885289E-02  7.259721009216E-02
C71 -4.259383771045E-01 -4.750782011471E-01 -4.274027899078E-01
C72  4.259383771045E-01  2.492179885289E-02 -7.259721009216E-02
C73  3.507582976832E-01  4.583730975297E-01  3.571168619094E-01
C74 -3.507582976832E-01 -4.162690247032E-02  1.428831380906E-01
C75 -3.507582976832E-01 -4.583730975297E-01 -3.571168619094E-01
C76  3.507582976832E-01  4.162690247032E-02 -1.428831380906E-01
H77  3.420014926547E-01  4.130826444078E-01  1.931204367296E-01
H78 -3.420014926547E-01 -8.691735559220E-02  3.068795632704E-01
H79 -3.420014926547E-01 -4.130826444078E-01 -1.931204367296E-01
H80  3.420014926547E-01  8.691735559220E-02 -3.068795632704E-01
C81 -4.870414245696E-01 -4.311679899846E-01 -2.962106271317E-01
C82  4.870414245696E-01  6.883201001542E-02 -2.037893728683E-01
C83  4.870414245696E-01  4.311679899846E-01  2.962106271317E-01
C84 -4.870414245696E-01 -6.883201001542E-02  2.037893728683E-01
H85 -4.771446336697E-01 -3.775557561512E-01 -1.360650725399E-01
H86  4.771446336697E-01  1.224442438488E-01 -3.639349274601E-01
H87  4.771446336697E-01  3.775557561512E-01  1.360650725399E-01
H88 -4.771446336697E-01 -1.224442438488E-01  3.639349274601E-01


#===END

data_OPT_STEP_24

_symmetry_space_group_name_H-M 'P 1'
_cell_length_a     18.02712447
_cell_length_b      7.65404855
_cell_length_c      6.35669449
_cell_angle_alpha   90.000000
_cell_angle_beta   89.458031
_cell_angle_gamma   90.000000

loop_
_atom_site_label
_atom_site_fract_x
_atom_site_fract_y
_atom_site_fract_z
C1  1.595709416751E-01 -3.773882448482E-01  4.818302860376E-01
C2 -1.595709416751E-01  1.226117551518E-01  1.816971396243E-02
C3 -1.595709416751E-01  3.773882448482E-01 -4.818302860376E-01
C4  1.595709416751E-01 -1.226117551518E-01 -1.816971396243E-02
H5  1.756252878119E-01 -2.752496904715E-01 -4.031880831788E-01
H6 -1.756252878119E-01  2.247503095285E-01 -9.681191682115E-02
H7 -1.756252878119E-01  2.752496904715E-01  4.031880831788E-01
H8  1.756252878119E-01 -2.247503095285E-01  9.681191682115E-02
C9  8.632861323231E-02 -3.805252577666E-01  4.085385530269E-01
C10 -8.632861323231E-02  1.194747422334E-01  9.146144697313E-02
C11 -8.632861323231E-02  3.805252577666E-01 -4.085385530269E-01
C12  8.632861323231E-02 -1.194747422334E-01 -9.146144697313E-02
H13  4.579834353744E-02 -2.837228365028E-01  4.697036469156E-01
H14 -4.579834353744E-02  2.162771634972E-01  3.029635308438E-02
H15 -4.579834353744E-02  2.837228365028E-01 -4.697036469156E-01
H16  4.579834353744E-02 -2.162771634972E-01 -3.029635308438E-02
C17  6.478085093634E-02  4.963868475898E-01  2.566412953731E-01
C18 -6.478085093634E-02 -3.613152410155E-03  2.433587046269E-01
C19 -6.478085093634E-02 -4.963868475898E-01 -2.566412953731E-01
C20  6.478085093634E-02  3.613152410155E-03 -2.433587046269E-01
H21  6.711802408745E-03  4.936272173710E-01  2.000036020208E-01
H22 -6.711802408745E-03 -6.372782628953E-03  2.999963979792E-01
H23 -6.711802408745E-03 -4.936272173710E-01 -2.000036020208E-01
H24  6.711802408745E-03  6.372782628953E-03 -2.999963979792E-01
C25  1.173981934215E-01  3.765040336495E-01  1.781395420332E-01
C26 -1.173981934215E-01 -1.234959663505E-01  3.218604579668E-01
C27 -1.173981934215E-01 -3.765040336495E-01 -1.781395420332E-01
C28  1.173981934215E-01  1.234959663505E-01 -3.218604579668E-01
H29  1.013137410874E-01  2.781589148208E-01  5.923963443605E-02
H30 -1.013137410874E-01 -2.218410851792E-01  4.407603655639E-01
H31 -1.013137410874E-01 -2.781589148208E-01 -5.923963443605E-02
H32  1.013137410874E-01  2.218410851792E-01 -4.407603655639E-01
C33  1.906270755690E-01  3.788423451005E-01  2.523946648909E-01
C34 -1.906270755690E-01 -1.211576548995E-01  2.476053351091E-01
C35 -1.906270755690E-01 -3.788423451005E-01 -2.523946648909E-01
C36  1.906270755690E-01  1.211576548995E-01 -2.476053351091E-01
H37  2.308012873107E-01  2.797621818686E-01  1.928924609247E-01
H38 -2.308012873107E-01 -2.202378181314E-01  3.071075390753E-01
H39 -2.308012873107E-01 -2.797621818686E-01 -1.928924609247E-01
H40  2.308012873107E-01  2.202378181314E-01 -3.071075390753E-01
C41  2.129864647324E-01 -4.983007173718E-01  4.056749345551E-01
C42 -2.129864647324E-01  1.699282628174E-03  9.432506544486E-02
C43 -2.129864647324E-01  4.983007173718E-01 -4.056749345551E-01
C44  2.129864647324E-01 -1.699282628174E-03 -9.432506544486E-02
C45  2.909367290456E-01 -4.921886556756E-01  4.837874727007E-01
C46 -2.909367290456E-01  7.811344324360E-03  1.621252729928E-02
C47 -2.909367290456E-01  4.921886556756E-01 -4.837874727007E-01
C48  2.909367290456E-01 -7.811344324360E-03 -1.621252729928E-02
C49  3.054098383690E-01 -4.314461683701E-01 -3.047383859027E-01
C50 -3.054098383690E-01  6.855383162992E-02 -1.952616140973E-01
C51 -3.054098383690E-01  4.314461683701E-01  3.047383859027E-01
C52  3.054098383690E-01 -6.855383162992E-02  1.952616140973E-01
H53  2.579197335546E-01 -4.009828574445E-01 -1.979618828775E-01
H54 -2.579197335546E-01  9.901714255553E-02 -3.020381171225E-01
H55 -2.579197335546E-01  4.009828574445E-01  1.979618828775E-01
H56  2.579197335546E-01 -9.901714255553E-02  3.020381171225E-01
C57  3.767556288807E-01 -4.119432934890E-01 -2.324384647539E-01
C58 -3.767556288807E-01  8.805670651103E-02 -2.675615352461E-01
C59 -3.767556288807E-01  4.119432934890E-01  2.324384647539E-01
C60  3.767556288807E-01 -8.805670651103E-02  2.675615352461E-01
H61  3.863338848160E-01 -3.631491484619E-01 -7.032422794797E-02
H62 -3.863338848160E-01  1.368508515381E-01 -4.296757720520E-01
H63 -3.863338848160E-01  3.631491484619E-01  7.032422794797E-02
H64  3.863338848160E-01 -1.368508515381E-01  4.296757720520E-01
C65  4.396631139053E-01 -4.552029695973E-01 -3.638310541158E-01
C66 -4.396631139053E-01  4.479703040275E-02 -1.361689458842E-01
C67 -4.396631139053E-01  4.552029695973E-01  3.638310541158E-01
C68  4.396631139053E-01 -4.479703040275E-02  1.361689458842E-01
C69  4.258496117454E-01  4.756854323715E-01  4.271828546244E-01
C70 -4.258496117454E-01 -2.431456762845E-02  7.281714537561E-02
C71 -4.258496117454E-01 -4.756854323715E-01 -4.271828546244E-01
C72  4.258496117454E-01  2.431456762845E-02 -7.281714537561E-02
C73  3.505903870282E-01  4.592072107010E-01  3.568718381171E-01
C74 -3.505903870282E-01 -4.079278929896E-02  1.431281618829E-01
C75 -3.505903870282E-01 -4.592072107010E-01 -3.568718381171E-01
C76  3.505903870282E-01  4.079278929896E-02 -1.431281618829E-01
H77  3.416387159490E-01  4.133657700338E-01  1.929455636911E-01
H78 -3.416387159490E-01 -8.663422996617E-02  3.070544363089E-01
H79 -3.416387159490E-01 -4.133657700338E-01 -1.929455636911E-01
H80  3.416387159490E-01  8.663422996617E-02 -3.070544363089E-01
C81 -4.867725829574E-01 -4.314099932664E-01 -2.960583310135E-01
C82  4.867725829574E-01  6.859000673357E-02 -2.039416689865E-01
C83  4.867725829574E-01  4.314099932664E-01  2.960583310135E-01
C84 -4.867725829574E-01 -6.859000673357E-02  2.039416689865E-01
H85 -4.767258337214E-01 -3.767481909801E-01 -1.363115863959E-01
H86  4.767258337214E-01  1.232518090199E-01 -3.636884136041E-01
H87  4.767258337214E-01  3.767481909801E-01  1.363115863959E-01
H88 -4.767258337214E-01 -1.232518090199E-01  3.636884136041E-01


#===END

data_OPT_STEP_25

_symmetry_space_group_name_H-M 'P 1'
_cell_length_a     18.03207625
_cell_length_b      7.64617908
_cell_length_c      6.35365890
_cell_angle_alpha   90.000000
_cell_angle_beta   89.623367
_cell_angle_gamma   90.000000

loop_
_atom_site_label
_atom_site_fract_x
_atom_site_fract_y
_atom_site_fract_z
C1  1.596749125562E-01 -3.780321820488E-01  4.818795341045E-01
C2 -1.596749125562E-01  1.219678179512E-01  1.812046589554E-02
C3 -1.596749125562E-01  3.780321820488E-01 -4.818795341045E-01
C4  1.596749125562E-01 -1.219678179512E-01 -1.812046589554E-02
H5  1.758107068413E-01 -2.763050378951E-01 -4.025083169144E-01
H6 -1.758107068413E-01  2.236949621049E-01 -9.749168308557E-02
H7 -1.758107068413E-01  2.763050378951E-01  4.025083169144E-01
H8  1.758107068413E-01 -2.236949621049E-01  9.749168308557E-02
C9  8.625568850855E-02 -3.817646570806E-01  4.094742021605E-01
C10 -8.625568850855E-02  1.182353429194E-01  9.052579783948E-02
C11 -8.625568850855E-02  3.817646570806E-01 -4.094742021605E-01
C12  8.625568850855E-02 -1.182353429194E-01 -9.052579783948E-02
H13  4.588416397144E-02 -2.844532515611E-01  4.708076287321E-01
H14 -4.588416397144E-02  2.155467484389E-01  2.919237126790E-02
H15 -4.588416397144E-02  2.844532515611E-01 -4.708076287321E-01
H16  4.588416397144E-02 -2.155467484389E-01 -2.919237126790E-02
C17  6.443651060073E-02  4.950175731874E-01  2.573474545794E-01
C18 -6.443651060073E-02 -4.982426812602E-03  2.426525454206E-01
C19 -6.443651060073E-02 -4.950175731874E-01 -2.573474545794E-01
C20  6.443651060073E-02  4.982426812601E-03 -2.426525454206E-01
H21  6.203532359135E-03  4.924398820878E-01  2.010050746195E-01
H22 -6.203532359135E-03 -7.560117912178E-03  2.989949253805E-01
H23 -6.203532359135E-03 -4.924398820878E-01 -2.010050746195E-01
H24  6.203532359135E-03  7.560117912177E-03 -2.989949253805E-01
C25  1.170625252262E-01  3.761510311680E-01  1.770550075357E-01
C26 -1.170625252262E-01 -1.238489688320E-01  3.229449924643E-01
C27 -1.170625252262E-01 -3.761510311680E-01 -1.770550075357E-01
C28  1.170625252262E-01  1.238489688320E-01 -3.229449924643E-01
H29  1.007847597234E-01  2.772390577116E-01  5.819384997230E-02
H30 -1.007847597234E-01 -2.227609422884E-01  4.418061500277E-01
H31 -1.007847597234E-01 -2.772390577116E-01 -5.819384997230E-02
H32  1.007847597234E-01  2.227609422884E-01 -4.418061500277E-01
C33  1.905018887710E-01  3.794425995353E-01  2.500951553205E-01
C34 -1.905018887710E-01 -1.205574004647E-01  2.499048446795E-01
C35 -1.905018887710E-01 -3.794425995353E-01 -2.500951553205E-01
C36  1.905018887710E-01  1.205574004647E-01 -2.499048446795E-01
H37  2.307353784625E-01  2.811475647617E-01  1.888444660109E-01
H38 -2.307353784625E-01 -2.188524352383E-01  3.111555339891E-01
H39 -2.307353784625E-01 -2.811475647617E-01 -1.888444660109E-01
H40  2.307353784625E-01  2.188524352383E-01 -3.111555339891E-01
C41  2.130389595963E-01 -4.983479742921E-01  4.044315259817E-01
C42 -2.130389595963E-01  1.652025707922E-03  9.556847401831E-02
C43 -2.130389595963E-01  4.983479742921E-01 -4.044315259817E-01
C44  2.130389595963E-01 -1.652025707922E-03 -9.556847401831E-02
C45  2.909550133973E-01 -4.934906780491E-01  4.832823639652E-01
C46 -2.909550133973E-01  6.509321950937E-03  1.671763603477E-02
C47 -2.909550133973E-01  4.934906780491E-01 -4.832823639652E-01
C48  2.909550133973E-01 -6.509321950937E-03 -1.671763603477E-02
C49  3.055314379184E-01 -4.322826727679E-01 -3.052965465675E-01
C50 -3.055314379184E-01  6.771732723212E-02 -1.947034534325E-01
C51 -3.055314379184E-01  4.322826727679E-01  3.052965465675E-01
C52  3.055314379184E-01 -6.771732723212E-02  1.947034534325E-01
H53  2.581191259287E-01 -4.019606173208E-01 -1.985032540342E-01
H54 -2.581191259287E-01  9.803938267921E-02 -3.014967459658E-01
H55 -2.581191259287E-01  4.019606173208E-01  1.985032540342E-01
H56  2.581191259287E-01 -9.803938267921E-02  3.014967459658E-01
C57  3.768972220607E-01 -4.131301849723E-01 -2.325384139845E-01
C58 -3.768972220607E-01  8.686981502773E-02 -2.674615860155E-01
C59 -3.768972220607E-01  4.131301849723E-01  2.325384139845E-01
C60  3.768972220607E-01 -8.686981502773E-02  2.674615860155E-01
H61  3.866177657542E-01 -3.638772833568E-01 -7.032758993508E-02
H62 -3.866177657542E-01  1.361227166432E-01 -4.296724100649E-01
H63 -3.866177657542E-01  3.638772833568E-01  7.032758993508E-02
H64  3.866177657542E-01 -1.361227166432E-01  4.296724100649E-01
C65  4.397359920068E-01 -4.550614972599E-01 -3.641919474160E-01
C66 -4.397359920068E-01  4.493850274013E-02 -1.358080525840E-01
C67 -4.397359920068E-01  4.550614972599E-01  3.641919474160E-01
C68  4.397359920068E-01 -4.493850274013E-02  1.358080525840E-01
C69  4.258481330019E-01  4.756089869916E-01  4.267749298998E-01
C70 -4.258481330019E-01 -2.439101300841E-02  7.322507010021E-02
C71 -4.258481330019E-01 -4.756089869916E-01 -4.267749298998E-01
C72  4.258481330019E-01  2.439101300841E-02 -7.322507010021E-02
C73  3.505707408343E-01  4.584816756617E-01  3.563862434643E-01
C74 -3.505707408343E-01 -4.151832433829E-02  1.436137565357E-01
C75 -3.505707408343E-01 -4.584816756617E-01 -3.563862434643E-01
C76  3.505707408343E-01  4.151832433829E-02 -1.436137565357E-01
H77  3.415421253815E-01  4.121006900675E-01  1.923760952983E-01
H78 -3.415421253815E-01 -8.789930993247E-02  3.076239047017E-01
H79 -3.415421253815E-01 -4.121006900675E-01 -1.923760952983E-01
H80  3.415421253815E-01  8.789930993246E-02 -3.076239047017E-01
C81 -4.866953009677E-01 -4.319005593477E-01 -2.956088309800E-01
C82  4.866953009677E-01  6.809944065228E-02 -2.043911690200E-01
C83  4.866953009677E-01  4.319005593477E-01  2.956088309800E-01
C84 -4.866953009677E-01 -6.809944065228E-02  2.043911690200E-01
H85 -4.765775628999E-01 -3.764868658220E-01 -1.360094095642E-01
H86  4.765775628999E-01  1.235131341780E-01 -3.639905904358E-01
H87  4.765775628999E-01  3.764868658220E-01  1.360094095642E-01
H88 -4.765775628999E-01 -1.235131341780E-01  3.639905904358E-01


#===END

data_OPT_STEP_26

_symmetry_space_group_name_H-M 'P 1'
_cell_length_a     18.03994303
_cell_length_b      7.62978444
_cell_length_c      6.35448803
_cell_angle_alpha   90.000000
_cell_angle_beta   89.825767
_cell_angle_gamma   90.000000

loop_
_atom_site_label
_atom_site_fract_x
_atom_site_fract_y
_atom_site_fract_z
C1  1.597715055897E-01 -3.777298434743E-01  4.815176190778E-01
C2 -1.597715055897E-01  1.222701565257E-01  1.848238092219E-02
C3 -1.597715055897E-01  3.777298434743E-01 -4.815176190778E-01
C4  1.597715055897E-01 -1.222701565257E-01 -1.848238092219E-02
H5  1.759375973749E-01 -2.758044314511E-01 -4.027943356892E-01
H6 -1.759375973749E-01  2.241955685489E-01 -9.720566431084E-02
H7 -1.759375973749E-01  2.758044314511E-01  4.027943356892E-01
H8  1.759375973749E-01 -2.241955685489E-01  9.720566431084E-02
C9  8.629951743041E-02 -3.817610023194E-01  4.091253193084E-01
C10 -8.629951743041E-02  1.182389976806E-01  9.087468069158E-02
C11 -8.629951743041E-02  3.817610023194E-01 -4.091253193084E-01
C12  8.629951743041E-02 -1.182389976806E-01 -9.087468069158E-02
H13  4.588801008132E-02 -2.850450097598E-01  4.712710791574E-01
H14 -4.588801008132E-02  2.149549902402E-01  2.872892084260E-02
H15 -4.588801008132E-02  2.850450097598E-01 -4.712710791574E-01
H16  4.588801008132E-02 -2.149549902402E-01 -2.872892084260E-02
C17  6.445159670273E-02  4.953498785999E-01  2.562802070720E-01
C18 -6.445159670273E-02 -4.650121400106E-03  2.437197929280E-01
C19 -6.445159670273E-02 -4.953498785999E-01 -2.562802070720E-01
C20  6.445159670273E-02  4.650121400106E-03 -2.437197929280E-01
H21  6.101770274076E-03  4.925359469422E-01  2.003082529313E-01
H22 -6.101770274076E-03 -7.464053057848E-03  2.996917470687E-01
H23 -6.101770274076E-03 -4.925359469422E-01 -2.003082529313E-01
H24  6.101770274076E-03  7.464053057848E-03 -2.996917470687E-01
C25  1.170746818963E-01  3.765997190106E-01  1.755447354359E-01
C26 -1.170746818963E-01 -1.234002809894E-01  3.244552645641E-01
C27 -1.170746818963E-01 -3.765997190106E-01 -1.755447354359E-01
C28  1.170746818963E-01  1.234002809894E-01 -3.244552645641E-01
H29  1.007551571461E-01  2.775875215098E-01  5.636341034285E-02
H30 -1.007551571461E-01 -2.224124784902E-01  4.436365896571E-01
H31 -1.007551571461E-01 -2.775875215098E-01 -5.636341034285E-02
H32  1.007551571461E-01  2.224124784902E-01 -4.436365896571E-01
C33  1.905083438905E-01  3.796602645318E-01  2.490816320892E-01
C34 -1.905083438905E-01 -1.203397354682E-01  2.509183679108E-01
C35 -1.905083438905E-01 -3.796602645318E-01 -2.490816320892E-01
C36  1.905083438905E-01  1.203397354682E-01 -2.509183679108E-01
H37  2.305812602873E-01  2.810395428853E-01  1.883755037278E-01
H38 -2.305812602873E-01 -2.189604571147E-01  3.116244962722E-01
H39 -2.305812602873E-01 -2.810395428853E-01 -1.883755037278E-01
H40  2.305812602873E-01  2.189604571147E-01 -3.116244962722E-01
C41  2.131045085543E-01 -4.980879542650E-01  4.038848167379E-01
C42 -2.131045085543E-01  1.912045735033E-03  9.611518326213E-02
C43 -2.131045085543E-01  4.980879542650E-01 -4.038848167379E-01
C44  2.131045085543E-01 -1.912045735033E-03 -9.611518326213E-02
C45  2.910426646991E-01 -4.935197352005E-01  4.830745495082E-01
C46 -2.910426646991E-01  6.480264799467E-03  1.692545049184E-02
C47 -2.910426646991E-01  4.935197352005E-01 -4.830745495082E-01
C48  2.910426646991E-01 -6.480264799468E-03 -1.692545049184E-02
C49  3.058261669565E-01 -4.323778491294E-01 -3.053932507017E-01
C50 -3.058261669565E-01  6.762215087060E-02 -1.946067492983E-01
C51 -3.058261669565E-01  4.323778491294E-01  3.053932507017E-01
C52  3.058261669565E-01 -6.762215087060E-02  1.946067492983E-01
H53  2.585895313585E-01 -4.026169648349E-01 -1.984211209403E-01
H54 -2.585895313585E-01  9.738303516515E-02 -3.015788790597E-01
H55 -2.585895313585E-01  4.026169648349E-01  1.984211209403E-01
H56  2.585895313585E-01 -9.738303516515E-02  3.015788790597E-01
C57  3.772395994245E-01 -4.140629484852E-01 -2.322255897976E-01
C58 -3.772395994245E-01  8.593705151478E-02 -2.677744102024E-01
C59 -3.772395994245E-01  4.140629484852E-01  2.322255897976E-01
C60  3.772395994245E-01 -8.593705151478E-02  2.677744102024E-01
H61  3.872059242987E-01 -3.646095249871E-01 -7.001130526052E-02
H62 -3.872059242987E-01  1.353904750129E-01 -4.299886947395E-01
H63 -3.872059242987E-01  3.646095249871E-01  7.001130526052E-02
H64  3.872059242987E-01 -1.353904750129E-01  4.299886947395E-01
C65  4.399257978098E-01 -4.562136315572E-01 -3.637477187603E-01
C66 -4.399257978098E-01  4.378636844281E-02 -1.362522812397E-01
C67 -4.399257978098E-01  4.562136315572E-01  3.637477187603E-01
C68  4.399257978098E-01 -4.378636844281E-02  1.362522812397E-01
C69  4.258181299892E-01  4.740448098827E-01  4.273763507089E-01
C70 -4.258181299892E-01 -2.595519011730E-02  7.262364929115E-02
C71 -4.258181299892E-01 -4.740448098827E-01 -4.273763507089E-01
C72  4.258181299892E-01  2.595519011730E-02 -7.262364929115E-02
C73  3.505062172839E-01  4.582688994257E-01  3.563209314533E-01
C74 -3.505062172839E-01 -4.173110057433E-02  1.436790685467E-01
C75 -3.505062172839E-01 -4.582688994257E-01 -3.563209314533E-01
C76  3.505062172839E-01  4.173110057433E-02 -1.436790685467E-01
H77  3.412760398813E-01  4.119234620048E-01  1.922393364682E-01
H78 -3.412760398813E-01 -8.807653799519E-02  3.077606635318E-01
H79 -3.412760398813E-01 -4.119234620048E-01 -1.922393364682E-01
H80  3.412760398813E-01  8.807653799519E-02 -3.077606635318E-01
C81 -4.864834704205E-01 -4.308917396971E-01 -2.960273814639E-01
C82  4.864834704205E-01  6.910826030292E-02 -2.039726185361E-01
C83  4.864834704205E-01  4.308917396971E-01  2.960273814639E-01
C84 -4.864834704205E-01 -6.910826030292E-02  2.039726185361E-01
H85 -4.761551039802E-01 -3.760123016924E-01 -1.362940365571E-01
H86  4.761551039802E-01  1.239876983076E-01 -3.637059634429E-01
H87  4.761551039802E-01  3.760123016924E-01  1.362940365571E-01
H88 -4.761551039802E-01 -1.239876983076E-01  3.637059634429E-01


#===END

data_OPT_STEP_27

_symmetry_space_group_name_H-M 'P 1'
_cell_length_a     18.04384860
_cell_length_b      7.62379685
_cell_length_c      6.35479916
_cell_angle_alpha   90.000000
_cell_angle_beta   90.023086
_cell_angle_gamma   90.000000

loop_
_atom_site_label
_atom_site_fract_x
_atom_site_fract_y
_atom_site_fract_z
C1  1.596353055704E-01 -3.775360863595E-01  4.815015235694E-01
C2 -1.596353055704E-01  1.224639136405E-01  1.849847643056E-02
C3 -1.596353055704E-01  3.775360863595E-01 -4.815015235694E-01
C4  1.596353055704E-01 -1.224639136405E-01 -1.849847643056E-02
H5  1.756824479018E-01 -2.763398116225E-01 -4.018737506606E-01
H6 -1.756824479018E-01  2.236601883775E-01 -9.812624933944E-02
H7 -1.756824479018E-01  2.763398116225E-01  4.018737506606E-01
H8  1.756824479018E-01 -2.236601883775E-01  9.812624933944E-02
C9  8.624320151713E-02 -3.807453189975E-01  4.078996092227E-01
C10 -8.624320151713E-02  1.192546810025E-01  9.210039077732E-02
C11 -8.624320151713E-02  3.807453189975E-01 -4.078996092227E-01
C12  8.624320151713E-02 -1.192546810025E-01 -9.210039077732E-02
H13  4.567689618095E-02 -2.852919346455E-01  4.713386586889E-01
H14 -4.567689618095E-02  2.147080653545E-01  2.866134131108E-02
H15 -4.567689618095E-02  2.852919346455E-01 -4.713386586889E-01
H16  4.567689618095E-02 -2.147080653545E-01 -2.866134131108E-02
C17  6.445441210808E-02  4.968021574607E-01  2.542800723271E-01
C18 -6.445441210808E-02 -3.197842539298E-03  2.457199276729E-01
C19 -6.445441210808E-02 -4.968021574607E-01 -2.542800723271E-01
C20  6.445441210808E-02  3.197842539298E-03 -2.457199276729E-01
H21  5.963667566937E-03  4.933042124591E-01  1.989731382442E-01
H22 -5.963667566937E-03 -6.695787540906E-03  3.010268617558E-01
H23 -5.963667566937E-03 -4.933042124591E-01 -1.989731382442E-01
H24  5.963667566937E-03  6.695787540906E-03 -3.010268617558E-01
C25  1.171051800946E-01  3.779342973210E-01  1.735585754204E-01
C26 -1.171051800946E-01 -1.220657026790E-01  3.264414245796E-01
C27 -1.171051800946E-01 -3.779342973210E-01 -1.735585754204E-01
C28  1.171051800946E-01  1.220657026790E-01 -3.264414245796E-01
H29  1.008063248047E-01  2.789699809026E-01  5.393241434099E-02
H30 -1.008063248047E-01 -2.210300190974E-01  4.460675856590E-01
H31 -1.008063248047E-01 -2.789699809026E-01 -5.393241434099E-02
H32  1.008063248047E-01  2.210300190974E-01 -4.460675856590E-01
C33  1.905019485898E-01  3.806431305397E-01  2.479269116655E-01
C34 -1.905019485898E-01 -1.193568694603E-01  2.520730883345E-01
C35 -1.905019485898E-01 -3.806431305397E-01 -2.479269116655E-01
C36  1.905019485898E-01  1.193568694603E-01 -2.520730883345E-01
H37  2.303679482367E-01  2.814412877010E-01  1.884452893588E-01
H38 -2.303679482367E-01 -2.185587122990E-01  3.115547106412E-01
H39 -2.303679482367E-01 -2.814412877010E-01 -1.884452893588E-01
H40  2.303679482367E-01  2.185587122990E-01 -3.115547106412E-01
C41  2.130521330003E-01 -4.973902548211E-01  4.034184616468E-01
C42 -2.130521330003E-01  2.609745178888E-03  9.658153835324E-02
C43 -2.130521330003E-01  4.973902548211E-01 -4.034184616468E-01
C44  2.130521330003E-01 -2.609745178888E-03 -9.658153835324E-02
C45  2.910526792696E-01 -4.928233993270E-01  4.827893472583E-01
C46 -2.910526792696E-01  7.176600672956E-03  1.721065274167E-02
C47 -2.910526792696E-01  4.928233993270E-01 -4.827893472583E-01
C48  2.910526792696E-01 -7.176600672956E-03 -1.721065274167E-02
C49  3.060642433660E-01 -4.324992421648E-01 -3.052527203210E-01
C50 -3.060642433660E-01  6.750075783516E-02 -1.947472796790E-01
C51 -3.060642433660E-01  4.324992421648E-01  3.052527203210E-01
C52  3.060642433660E-01 -6.750075783516E-02  1.947472796790E-01
H53  2.590253319986E-01 -4.033099759335E-01 -1.980811725330E-01
H54 -2.590253319986E-01  9.669002406654E-02 -3.019188274670E-01
H55 -2.590253319986E-01  4.033099759335E-01  1.980811725330E-01
H56  2.590253319986E-01 -9.669002406654E-02  3.019188274670E-01
C57  3.775536477769E-01 -4.138183833152E-01 -2.322488860929E-01
C58 -3.775536477769E-01  8.618161668477E-02 -2.677511139071E-01
C59 -3.775536477769E-01  4.138183833152E-01  2.322488860929E-01
C60  3.775536477769E-01 -8.618161668477E-02  2.677511139071E-01
H61  3.878018850175E-01 -3.643842270730E-01 -6.999874839154E-02
H62 -3.878018850175E-01  1.356157729270E-01 -4.300012516085E-01
H63 -3.878018850175E-01  3.643842270730E-01  6.999874839154E-02
H64  3.878018850175E-01 -1.356157729270E-01  4.300012516085E-01
C65  4.400936160705E-01 -4.557590872088E-01 -3.639289830336E-01
C66 -4.400936160705E-01  4.424091279119E-02 -1.360710169664E-01
C67 -4.400936160705E-01  4.557590872088E-01  3.639289830336E-01
C68  4.400936160705E-01 -4.424091279119E-02  1.360710169664E-01
C69  4.257486478350E-01  4.755303525357E-01  4.266931078256E-01
C70 -4.257486478350E-01 -2.446964746432E-02  7.330689217438E-02
C71 -4.257486478350E-01 -4.755303525357E-01 -4.266931078256E-01
C72  4.257486478350E-01  2.446964746432E-02 -7.330689217438E-02
C73  3.503622027738E-01  4.589147784869E-01  3.560524217186E-01
C74 -3.503622027738E-01 -4.108522151313E-02  1.439475782814E-01
C75 -3.503622027738E-01 -4.589147784869E-01 -3.560524217186E-01
C76  3.503622027738E-01  4.108522151313E-02 -1.439475782814E-01
H77  3.409181834391E-01  4.128022523616E-01  1.918878936310E-01
H78 -3.409181834391E-01 -8.719774763842E-02  3.081121063690E-01
H79 -3.409181834391E-01 -4.128022523616E-01 -1.918878936310E-01
H80  3.409181834391E-01  8.719774763842E-02 -3.081121063690E-01
C81 -4.862374365546E-01 -4.316000001315E-01 -2.956656350492E-01
C82  4.862374365546E-01  6.839999986849E-02 -2.043343649508E-01
C83  4.862374365546E-01  4.316000001315E-01  2.956656350492E-01
C84 -4.862374365546E-01 -6.839999986849E-02  2.043343649508E-01
H85 -4.756527583085E-01 -3.778188359394E-01 -1.356286234196E-01
H86  4.756527583085E-01  1.221811640606E-01 -3.643713765804E-01
H87  4.756527583085E-01  3.778188359394E-01  1.356286234196E-01
H88 -4.756527583085E-01 -1.221811640606E-01  3.643713765804E-01


#===END

data_OPT_STEP_28

_symmetry_space_group_name_H-M 'P 1'
_cell_length_a     18.04553420
_cell_length_b      7.61861240
_cell_length_c      6.34672316
_cell_angle_alpha   90.000000
_cell_angle_beta   90.203482
_cell_angle_gamma   90.000000

loop_
_atom_site_label
_atom_site_fract_x
_atom_site_fract_y
_atom_site_fract_z
C1  1.596571965876E-01 -3.776093871679E-01  4.817348592023E-01
C2 -1.596571965876E-01  1.223906128321E-01  1.826514079770E-02
C3 -1.596571965876E-01  3.776093871679E-01 -4.817348592023E-01
C4  1.596571965876E-01 -1.223906128321E-01 -1.826514079770E-02
H5  1.758036104770E-01 -2.765346684205E-01 -4.011581467473E-01
H6 -1.758036104770E-01  2.234653315795E-01 -9.884185325270E-02
H7 -1.758036104770E-01  2.765346684205E-01  4.011581467473E-01
H8  1.758036104770E-01 -2.234653315795E-01  9.884185325270E-02
C9  8.610614530895E-02 -3.814374995397E-01  4.086969308183E-01
C10 -8.610614530895E-02  1.185625004603E-01  9.130306918169E-02
C11 -8.610614530895E-02  3.814374995397E-01 -4.086969308183E-01
C12  8.610614530895E-02 -1.185625004603E-01 -9.130306918169E-02
H13  4.556913866927E-02 -2.862068495082E-01  4.727128380020E-01
H14 -4.556913866927E-02  2.137931504918E-01  2.728716199796E-02
H15 -4.556913866927E-02  2.862068495082E-01 -4.727128380020E-01
H16  4.556913866927E-02 -2.137931504918E-01 -2.728716199796E-02
C17  6.417731286829E-02  4.963423543424E-01  2.544571494142E-01
C18 -6.417731286829E-02 -3.657645657565E-03  2.455428505858E-01
C19 -6.417731286829E-02 -4.963423543424E-01 -2.544571494142E-01
C20  6.417731286829E-02  3.657645657564E-03 -2.455428505858E-01
H21  5.632792815724E-03  4.927928840337E-01  1.991570080046E-01
H22 -5.632792815724E-03 -7.207115966273E-03  3.008429919954E-01
H23 -5.632792815724E-03 -4.927928840337E-01 -1.991570080046E-01
H24  5.632792815724E-03  7.207115966273E-03 -3.008429919954E-01
C25  1.167811732721E-01  3.778692446831E-01  1.730301485746E-01
C26 -1.167811732721E-01 -1.221307553169E-01  3.269698514254E-01
C27 -1.167811732721E-01 -3.778692446831E-01 -1.730301485746E-01
C28  1.167811732721E-01  1.221307553169E-01 -3.269698514254E-01
H29  1.004781792900E-01  2.799019554352E-01  5.211318492519E-02
H30 -1.004781792900E-01 -2.200980445648E-01  4.478868150748E-01
H31 -1.004781792900E-01 -2.799019554352E-01 -5.211318492519E-02
H32  1.004781792900E-01  2.200980445648E-01 -4.478868150748E-01
C33  1.902528926900E-01  3.805022845990E-01  2.474697632165E-01
C34 -1.902528926900E-01 -1.194977154010E-01  2.525302367835E-01
C35 -1.902528926900E-01 -3.805022845990E-01 -2.474697632165E-01
C36  1.902528926900E-01  1.194977154010E-01 -2.525302367835E-01
H37  2.301077600586E-01  2.818513288687E-01  1.871835420843E-01
H38 -2.301077600586E-01 -2.181486711313E-01  3.128164579157E-01
H39 -2.301077600586E-01 -2.818513288687E-01 -1.871835420843E-01
H40  2.301077600586E-01  2.181486711313E-01 -3.128164579157E-01
C41  2.129807948497E-01 -4.975542367252E-01  4.033841471833E-01
C42 -2.129807948497E-01  2.445763274836E-03  9.661585281675E-02
C43 -2.129807948497E-01  4.975542367252E-01 -4.033841471833E-01
C44  2.129807948497E-01 -2.445763274836E-03 -9.661585281675E-02
C45  2.910635298973E-01 -4.931088008262E-01  4.829444823827E-01
C46 -2.910635298972E-01  6.891199173847E-03  1.705551761727E-02
C47 -2.910635298972E-01  4.931088008262E-01 -4.829444823827E-01
C48  2.910635298972E-01 -6.891199173847E-03 -1.705551761727E-02
C49  3.063105052627E-01 -4.324634669921E-01 -3.049049873360E-01
C50 -3.063105052627E-01  6.753653300795E-02 -1.950950126640E-01
C51 -3.063105052627E-01  4.324634669921E-01  3.049049873360E-01
C52  3.063105052627E-01 -6.753653300795E-02  1.950950126640E-01
H53  2.593966981674E-01 -4.022294613658E-01 -1.980213245514E-01
H54 -2.593966981674E-01  9.777053863420E-02 -3.019786754486E-01
H55 -2.593966981674E-01  4.022294613658E-01  1.980213245514E-01
H56  2.593966981674E-01 -9.777053863420E-02  3.019786754486E-01
C57  3.778721629771E-01 -4.128515985249E-01 -2.321666342496E-01
C58 -3.778721629771E-01  8.714840147507E-02 -2.678333657504E-01
C59 -3.778721629771E-01  4.128515985249E-01  2.321666342496E-01
C60  3.778721629771E-01 -8.714840147507E-02  2.678333657504E-01
H61  3.882992851465E-01 -3.638673878358E-01 -6.955852010274E-02
H62 -3.882992851465E-01  1.361326121642E-01 -4.304414798973E-01
H63 -3.882992851465E-01  3.638673878358E-01  6.955852010274E-02
H64  3.882992851465E-01 -1.361326121642E-01  4.304414798973E-01
C65  4.402498372555E-01 -4.550006265691E-01 -3.639994512367E-01
C66 -4.402498372555E-01  4.499937343087E-02 -1.360005487633E-01
C67 -4.402498372555E-01  4.550006265691E-01  3.639994512367E-01
C68  4.402498372555E-01 -4.499937343087E-02  1.360005487633E-01
C69  4.256747074281E-01  4.749479353750E-01  4.269217263167E-01
C70 -4.256747074281E-01 -2.505206462495E-02  7.307827368325E-02
C71 -4.256747074281E-01 -4.749479353750E-01 -4.269217263167E-01
C72  4.256747074281E-01  2.505206462495E-02 -7.307827368325E-02
C73  3.502202320444E-01  4.581012284257E-01  3.562641483575E-01
C74 -3.502202320444E-01 -4.189877157426E-02  1.437358516425E-01
C75 -3.502202320444E-01 -4.581012284257E-01 -3.562641483575E-01
C76  3.502202320444E-01  4.189877157426E-02 -1.437358516425E-01
H77  3.406140214592E-01  4.124490888383E-01  1.917039568709E-01
H78 -3.406140214592E-01 -8.755091116173E-02  3.082960431291E-01
H79 -3.406140214592E-01 -4.124490888383E-01 -1.917039568709E-01
H80  3.406140214592E-01  8.755091116173E-02 -3.082960431291E-01
C81 -4.860176846700E-01 -4.301787549145E-01 -2.960336938519E-01
C82  4.860176846700E-01  6.982124508549E-02 -2.039663061481E-01
C83  4.860176846700E-01  4.301787549145E-01  2.960336938519E-01
C84 -4.860176846700E-01 -6.982124508549E-02  2.039663061481E-01
H85 -4.752686739578E-01 -3.742016365530E-01 -1.367951501976E-01
H86  4.752686739578E-01  1.257983634470E-01 -3.632048498024E-01
H87  4.752686739578E-01  3.742016365530E-01  1.367951501976E-01
H88 -4.752686739578E-01 -1.257983634470E-01  3.632048498024E-01


#===END

data_OPT_STEP_29

_symmetry_space_group_name_H-M 'P 1'
_cell_length_a     18.04031607
_cell_length_b      7.62366837
_cell_length_c      6.34572829
_cell_angle_alpha   90.000000
_cell_angle_beta   90.398502
_cell_angle_gamma   90.000000

loop_
_atom_site_label
_atom_site_fract_x
_atom_site_fract_y
_atom_site_fract_z
C1  1.594197179300E-01 -3.791530184365E-01  4.830030896261E-01
C2 -1.594197179300E-01  1.208469815635E-01  1.699691037391E-02
C3 -1.594197179300E-01  3.791530184365E-01 -4.830030896261E-01
C4  1.594197179300E-01 -1.208469815635E-01 -1.699691037391E-02
H5  1.756997035660E-01 -2.782842460219E-01 -3.994311634475E-01
H6 -1.756997035660E-01  2.217157539781E-01 -1.005688365525E-01
H7 -1.756997035660E-01  2.782842460219E-01  3.994311634475E-01
H8  1.756997035660E-01 -2.217157539781E-01  1.005688365525E-01
C9  8.574813697069E-02 -3.827792171191E-01  4.099185689123E-01
C10 -8.574813697069E-02  1.172207828809E-01  9.008143108770E-02
C11 -8.574813697069E-02  3.827792171191E-01 -4.099185689123E-01
C12  8.574813697069E-02 -1.172207828809E-01 -9.008143108770E-02
H13  4.526049554648E-02 -2.876186401817E-01  4.743196212383E-01
H14 -4.526049554648E-02  2.123813598183E-01  2.568037876173E-02
H15 -4.526049554648E-02  2.876186401817E-01 -4.743196212383E-01
H16  4.526049554648E-02 -2.123813598183E-01 -2.568037876173E-02
C17  6.366732405521E-02  4.955934889652E-01  2.550273682667E-01
C18 -6.366732405521E-02 -4.406511034817E-03  2.449726317333E-01
C19 -6.366732405521E-02 -4.955934889652E-01 -2.550273682667E-01
C20  6.366732405521E-02  4.406511034817E-03 -2.449726317333E-01
H21  5.059555323616E-03  4.919502058097E-01  1.996823862049E-01
H22 -5.059555323616E-03 -8.049794190319E-03  3.003176137951E-01
H23 -5.059555323616E-03 -4.919502058097E-01 -1.996823862049E-01
H24  5.059555323616E-03  8.049794190319E-03 -3.003176137951E-01
C25  1.162753717034E-01  3.781099908539E-01  1.726310427885E-01
C26 -1.162753717034E-01 -1.218900091461E-01  3.273689572115E-01
C27 -1.162753717034E-01 -3.781099908539E-01 -1.726310427885E-01
C28  1.162753717034E-01  1.218900091461E-01 -3.273689572115E-01
H29  9.985375858932E-02  2.803629585441E-01  5.125381793961E-02
H30 -9.985375858932E-02 -2.196370414559E-01  4.487461820604E-01
H31 -9.985375858932E-02 -2.803629585441E-01 -5.125381793961E-02
H32  9.985375858932E-02  2.196370414559E-01 -4.487461820604E-01
C33  1.898300312137E-01  3.803144134858E-01  2.473422722540E-01
C34 -1.898300312137E-01 -1.196855865142E-01  2.526577277460E-01
C35 -1.898300312137E-01 -3.803144134858E-01 -2.473422722540E-01
C36  1.898300312137E-01  1.196855865142E-01 -2.526577277460E-01
H37  2.297371063026E-01  2.822782328637E-01  1.860214230111E-01
H38 -2.297371063026E-01 -2.177217671363E-01  3.139785769889E-01
H39 -2.297371063026E-01 -2.822782328637E-01 -1.860214230111E-01
H40  2.297371063026E-01  2.177217671363E-01 -3.139785769889E-01
C41  2.127207742500E-01 -4.984172903773E-01  4.039212800586E-01
C42 -2.127207742500E-01  1.582709622674E-03  9.607871994138E-02
C43 -2.127207742500E-01  4.984172903773E-01 -4.039212800586E-01
C44  2.127207742500E-01 -1.582709622674E-03 -9.607871994138E-02
C45  2.909744837053E-01 -4.934764427889E-01  4.831152431732E-01
C46 -2.909744837053E-01  6.523557211129E-03  1.688475682679E-02
C47 -2.909744837053E-01  4.934764427889E-01 -4.831152431732E-01
C48  2.909744837053E-01 -6.523557211129E-03 -1.688475682679E-02
C49  3.065059114983E-01 -4.325111708695E-01 -3.048657112556E-01
C50 -3.065059114983E-01  6.748882913052E-02 -1.951342887444E-01
C51 -3.065059114983E-01  4.325111708695E-01  3.048657112556E-01
C52  3.065059114983E-01 -6.748882913052E-02  1.951342887444E-01
H53  2.596858099100E-01 -4.019994726324E-01 -1.980265252549E-01
H54 -2.596858099100E-01  9.800052736760E-02 -3.019734747451E-01
H55 -2.596858099100E-01  4.019994726324E-01  1.980265252549E-01
H56  2.596858099100E-01 -9.800052736760E-02  3.019734747451E-01
C57  3.781668852664E-01 -4.129717340992E-01 -2.320747300434E-01
C58 -3.781668852664E-01  8.702826590076E-02 -2.679252699566E-01
C59 -3.781668852664E-01  4.129717340992E-01  2.320747300434E-01
C60  3.781668852664E-01 -8.702826590076E-02  2.679252699566E-01
H61  3.887715462259E-01 -3.640075313935E-01 -6.946971183872E-02
H62 -3.887715462259E-01  1.359924686065E-01 -4.305302881613E-01
H63 -3.887715462259E-01  3.640075313935E-01  6.946971183872E-02
H64  3.887715462259E-01 -1.359924686065E-01  4.305302881613E-01
C65  4.403920549080E-01 -4.556016273627E-01 -3.636932826714E-01
C66 -4.403920549080E-01  4.439837263733E-02 -1.363067173286E-01
C67 -4.403920549080E-01  4.556016273627E-01  3.636932826714E-01
C68  4.403920549080E-01 -4.439837263733E-02  1.363067173286E-01
C69  4.255603932193E-01  4.747557780811E-01  4.269889001359E-01
C70 -4.255603932193E-01 -2.524422191892E-02  7.301109986408E-02
C71 -4.255603932193E-01 -4.747557780811E-01 -4.269889001359E-01
C72  4.255603932193E-01  2.524422191892E-02 -7.301109986408E-02
C73  3.500010203406E-01  4.581884500972E-01  3.561907792491E-01
C74 -3.500010203406E-01 -4.181154990282E-02  1.438092207509E-01
C75 -3.500010203406E-01 -4.581884500972E-01 -3.561907792491E-01
C76  3.500010203406E-01  4.181154990282E-02 -1.438092207509E-01
H77  3.402098740152E-01  4.125471159188E-01  1.916271340991E-01
H78 -3.402098740152E-01 -8.745288408125E-02  3.083728659009E-01
H79 -3.402098740152E-01 -4.125471159188E-01 -1.916271340991E-01
H80  3.402098740152E-01  8.745288408125E-02 -3.083728659009E-01
C81 -4.857757751982E-01 -4.314722279166E-01 -2.954150121164E-01
C82  4.857757751982E-01  6.852777208339E-02 -2.045849878836E-01
C83  4.857757751982E-01  4.314722279166E-01  2.954150121164E-01
C84 -4.857757751982E-01 -6.852777208339E-02  2.045849878836E-01
H85 -4.748567298978E-01 -3.758066802419E-01 -1.358371381870E-01
H86  4.748567298978E-01  1.241933197581E-01 -3.641628618130E-01
H87  4.748567298978E-01  3.758066802419E-01  1.358371381870E-01
H88 -4.748567298978E-01 -1.241933197581E-01  3.641628618130E-01


#===END

data_OPT_STEP_30

_symmetry_space_group_name_H-M 'P 1'
_cell_length_a     18.03514550
_cell_length_b      7.61254300
_cell_length_c      6.34813776
_cell_angle_alpha   90.000000
_cell_angle_beta   90.598649
_cell_angle_gamma   90.000000

loop_
_atom_site_label
_atom_site_fract_x
_atom_site_fract_y
_atom_site_fract_z
C1  1.592210875037E-01 -3.798277560025E-01  4.831320074645E-01
C2 -1.592210875037E-01  1.201722439975E-01  1.686799253549E-02
C3 -1.592210875037E-01  3.798277560025E-01 -4.831320074645E-01
C4  1.592210875037E-01 -1.201722439975E-01 -1.686799253549E-02
H5  1.755972635502E-01 -2.790815721789E-01 -3.987973688919E-01
H6 -1.755972635502E-01  2.209184278211E-01 -1.012026311081E-01
H7 -1.755972635502E-01  2.790815721789E-01  3.987973688919E-01
H8  1.755972635502E-01 -2.209184278211E-01  1.012026311081E-01
C9  8.536753766807E-02 -3.839621043862E-01  4.106726002978E-01
C10 -8.536753766807E-02  1.160378956138E-01  8.932739970219E-02
C11 -8.536753766807E-02  3.839621043862E-01 -4.106726002978E-01
C12  8.536753766807E-02 -1.160378956138E-01 -8.932739970219E-02
H13  4.489783523900E-02 -2.890780456676E-01  4.758496379026E-01
H14 -4.489783523900E-02  2.109219543324E-01  2.415036209745E-02
H15 -4.489783523900E-02  2.890780456676E-01 -4.758496379026E-01
H16  4.489783523900E-02 -2.109219543324E-01 -2.415036209745E-02
C17  6.310093345915E-02  4.946233239239E-01  2.553042137505E-01
C18 -6.310093345915E-02 -5.376676076127E-03  2.446957862495E-01
C19 -6.310093345915E-02 -4.946233239239E-01 -2.553042137505E-01
C20  6.310093345915E-02  5.376676076127E-03 -2.446957862495E-01
H21  4.405379112332E-03  4.910593025474E-01  2.000232112736E-01
H22 -4.405379112332E-03 -8.940697452631E-03  2.999767887264E-01
H23 -4.405379112332E-03 -4.910593025474E-01 -2.000232112736E-01
H24  4.405379112332E-03  8.940697452630E-03 -2.999767887264E-01
C25  1.156775407060E-01  3.773065604133E-01  1.724094933217E-01
C26 -1.156775407060E-01 -1.226934395867E-01  3.275905066783E-01
C27 -1.156775407060E-01 -3.773065604133E-01 -1.724094933217E-01
C28  1.156775407060E-01  1.226934395867E-01 -3.275905066783E-01
H29  9.921068479823E-02  2.802011025286E-01  5.008898563291E-02
H30 -9.921068479823E-02 -2.197988974714E-01  4.499110143671E-01
H31 -9.921068479823E-02 -2.802011025286E-01 -5.008898563291E-02
H32  9.921068479823E-02  2.197988974714E-01 -4.499110143671E-01
C33  1.894314704929E-01  3.801217145601E-01  2.464588744024E-01
C34 -1.894314704929E-01 -1.198782854399E-01  2.535411255976E-01
C35 -1.894314704929E-01 -3.801217145601E-01 -2.464588744024E-01
C36  1.894314704929E-01  1.198782854399E-01 -2.535411255976E-01
H37  2.294050084543E-01  2.827045245074E-01  1.839600803055E-01
H38 -2.294050084543E-01 -2.172954754926E-01  3.160399196945E-01
H39 -2.294050084543E-01 -2.827045245074E-01 -1.839600803055E-01
H40  2.294050084543E-01  2.172954754926E-01 -3.160399196945E-01
C41  2.124941178240E-01 -4.988613373488E-01  4.035323539712E-01
C42 -2.124941178240E-01  1.138662651170E-03  9.646764602878E-02
C43 -2.124941178240E-01  4.988613373488E-01 -4.035323539712E-01
C44  2.124941178240E-01 -1.138662651170E-03 -9.646764602878E-02
C45  2.908687914681E-01 -4.938390762248E-01  4.827040672282E-01
C46 -2.908687914681E-01  6.160923775159E-03  1.729593277183E-02
C47 -2.908687914681E-01  4.938390762248E-01 -4.827040672282E-01
C48  2.908687914681E-01 -6.160923775159E-03 -1.729593277183E-02
C49  3.066286865251E-01 -4.328346491819E-01 -3.053482567791E-01
C50 -3.066286865251E-01  6.716535081809E-02 -1.946517432209E-01
C51 -3.066286865251E-01  4.328346491819E-01  3.053482567791E-01
C52  3.066286865251E-01 -6.716535081809E-02  1.946517432209E-01
H53  2.599013426084E-01 -4.027867753942E-01 -1.983670093895E-01
H54 -2.599013426084E-01  9.721322460581E-02 -3.016329906105E-01
H55 -2.599013426084E-01  4.027867753942E-01  1.983670093895E-01
H56  2.599013426084E-01 -9.721322460581E-02  3.016329906105E-01
C57  3.783730553077E-01 -4.135109571571E-01 -2.323193838635E-01
C58 -3.783730553077E-01  8.648904284285E-02 -2.676806161365E-01
C59 -3.783730553077E-01  4.135109571571E-01  2.323193838635E-01
C60  3.783730553077E-01 -8.648904284285E-02  2.676806161365E-01
H61  3.891332830169E-01 -3.640338247428E-01 -6.995946044168E-02
H62 -3.891332830169E-01  1.359661752572E-01 -4.300405395583E-01
H63 -3.891332830169E-01  3.640338247428E-01  6.995946044168E-02
H64  3.891332830169E-01 -1.359661752572E-01  4.300405395583E-01
C65  4.404921824185E-01 -4.556786862667E-01 -3.638706203075E-01
C66 -4.404921824185E-01  4.432131373333E-02 -1.361293796925E-01
C67 -4.404921824185E-01  4.556786862667E-01  3.638706203075E-01
C68  4.404921824185E-01 -4.432131373333E-02  1.361293796925E-01
C69  4.254644296552E-01  4.753768774670E-01  4.265031255008E-01
C70 -4.254644296552E-01 -2.462312253301E-02  7.349687449916E-02
C71 -4.254644296552E-01 -4.753768774670E-01 -4.265031255008E-01
C72  4.254644296552E-01  2.462312253301E-02 -7.349687449916E-02
C73  3.498182747681E-01  4.587476203920E-01  3.555445680662E-01
C74 -3.498182747681E-01 -4.125237960801E-02  1.444554319338E-01
C75 -3.498182747681E-01 -4.587476203920E-01 -3.555445680662E-01
C76  3.498182747681E-01  4.125237960801E-02 -1.444554319338E-01
H77  3.398779614827E-01  4.125982493046E-01  1.912377380951E-01
H78 -3.398779614827E-01 -8.740175069543E-02  3.087622619049E-01
H79 -3.398779614827E-01 -4.125982493046E-01 -1.912377380951E-01
H80  3.398779614827E-01  8.740175069543E-02 -3.087622619049E-01
C81 -4.855951031155E-01 -4.315764032299E-01 -2.953692514157E-01
C82  4.855951031155E-01  6.842359677009E-02 -2.046307485843E-01
C83  4.855951031155E-01  4.315764032299E-01  2.953692514157E-01
C84 -4.855951031155E-01 -6.842359677009E-02  2.046307485843E-01
H85 -4.745163930775E-01 -3.773361010365E-01 -1.349862836472E-01
H86  4.745163930775E-01  1.226638989635E-01 -3.650137163528E-01
H87  4.745163930775E-01  3.773361010365E-01  1.349862836472E-01
H88 -4.745163930775E-01 -1.226638989635E-01  3.650137163528E-01


#===END

data_OPT_STEP_31

_symmetry_space_group_name_H-M 'P 1'
_cell_length_a     18.03038578
_cell_length_b      7.60389674
_cell_length_c      6.34408373
_cell_angle_alpha   90.000000
_cell_angle_beta   90.808763
_cell_angle_gamma   90.000000

loop_
_atom_site_label
_atom_site_fract_x
_atom_site_fract_y
_atom_site_fract_z
C1  1.590018896417E-01 -3.797124273913E-01  4.833500067585E-01
C2 -1.590018896417E-01  1.202875726087E-01  1.664999324147E-02
C3 -1.590018896417E-01  3.797124273913E-01 -4.833500067585E-01
C4  1.590018896417E-01 -1.202875726087E-01 -1.664999324147E-02
H5  1.753820013924E-01 -2.792399748142E-01 -3.978278860137E-01
H6 -1.753820013924E-01  2.207600251858E-01 -1.021721139863E-01
H7 -1.753820013924E-01  2.792399748142E-01  3.978278860137E-01
H8  1.753820013924E-01 -2.207600251858E-01  1.021721139863E-01
C9  8.506409966078E-02 -3.839151491715E-01  4.106866738419E-01
C10 -8.506409966078E-02  1.160848508285E-01  8.931332615810E-02
C11 -8.506409966078E-02  3.839151491715E-01 -4.106866738419E-01
C12  8.506409966078E-02 -1.160848508285E-01 -8.931332615810E-02
H13  4.450938891935E-02 -2.898036458830E-01  4.770088733437E-01
H14 -4.450938891935E-02  2.101963541170E-01  2.299112665627E-02
H15 -4.450938891935E-02  2.898036458830E-01 -4.770088733437E-01
H16  4.450938891935E-02 -2.101963541170E-01 -2.299112665627E-02
C17  6.270677014572E-02  4.948804813330E-01  2.546013525957E-01
C18 -6.270677014572E-02 -5.119518666994E-03  2.453986474043E-01
C19 -6.270677014572E-02 -4.948804813330E-01 -2.546013525957E-01
C20  6.270677014572E-02  5.119518666994E-03 -2.453986474043E-01
H21  3.870918219629E-03  4.910204795725E-01  1.996334460484E-01
H22 -3.870918219629E-03 -8.979520427513E-03  3.003665539516E-01
H23 -3.870918219629E-03 -4.910204795725E-01 -1.996334460484E-01
H24  3.870918219629E-03  8.979520427513E-03 -3.003665539516E-01
C25  1.153662420193E-01  3.782636602128E-01  1.707658518959E-01
C26 -1.153662420193E-01 -1.217363397872E-01  3.292341481041E-01
C27 -1.153662420193E-01 -3.782636602128E-01 -1.707658518959E-01
C28  1.153662420193E-01  1.217363397872E-01 -3.292341481041E-01
H29  9.882830037326E-02  2.810344919966E-01  4.805027135959E-02
H30 -9.882830037326E-02 -2.189655080034E-01  4.519497286404E-01
H31 -9.882830037326E-02 -2.810344919966E-01 -4.805027135959E-02
H32  9.882830037326E-02  2.189655080034E-01 -4.519497286404E-01
C33  1.892150649489E-01  3.811738135345E-01  2.450311611425E-01
C34 -1.892150649489E-01 -1.188261864655E-01  2.549688388575E-01
C35 -1.892150649489E-01 -3.811738135345E-01 -2.450311611425E-01
C36  1.892150649489E-01  1.188261864655E-01 -2.549688388575E-01
H37  2.291489115719E-01  2.837936292535E-01  1.823538157053E-01
H38 -2.291489115719E-01 -2.162063707465E-01  3.176461842947E-01
H39 -2.291489115719E-01 -2.837936292535E-01 -1.823538157053E-01
H40  2.291489115719E-01  2.162063707465E-01 -3.176461842947E-01
C41  2.123317315210E-01 -4.982502302741E-01  4.030372382979E-01
C42 -2.123317315210E-01  1.749769725894E-03  9.696276170208E-02
C43 -2.123317315210E-01  4.982502302741E-01 -4.030372382979E-01
C44  2.123317315210E-01 -1.749769725895E-03 -9.696276170208E-02
C45  2.907935865596E-01 -4.934256795569E-01  4.825149359619E-01
C46 -2.907935865596E-01  6.574320443075E-03  1.748506403812E-02
C47 -2.907935865596E-01  4.934256795569E-01 -4.825149359619E-01
C48  2.907935865596E-01 -6.574320443075E-03 -1.748506403812E-02
C49  3.068145243864E-01 -4.327200351963E-01 -3.052519794542E-01
C50 -3.068145243864E-01  6.727996480365E-02 -1.947480205458E-01
C51 -3.068145243864E-01  4.327200351963E-01  3.052519794542E-01
C52  3.068145243864E-01 -6.727996480365E-02  1.947480205458E-01
H53  2.602340052678E-01 -4.028512851417E-01 -1.980998354032E-01
H54 -2.602340052678E-01  9.714871485834E-02 -3.019001645968E-01
H55 -2.602340052678E-01  4.028512851417E-01  1.980998354032E-01
H56  2.602340052678E-01 -9.714871485834E-02  3.019001645968E-01
C57  3.786775120356E-01 -4.135443808397E-01 -2.321260317864E-01
C58 -3.786775120356E-01  8.645561916025E-02 -2.678739682136E-01
C59 -3.786775120356E-01  4.135443808397E-01  2.321260317864E-01
C60  3.786775120356E-01 -8.645561916025E-02  2.678739682136E-01
H61  3.896796291230E-01 -3.640770092981E-01 -6.963125349619E-02
H62 -3.896796291230E-01  1.359229907019E-01 -4.303687465038E-01
H63 -3.896796291230E-01  3.640770092981E-01  6.963125349619E-02
H64  3.896796291230E-01 -1.359229907019E-01  4.303687465038E-01
C65  4.406525862812E-01 -4.555883028379E-01 -3.638295023352E-01
C66 -4.406525862812E-01  4.441169716205E-02 -1.361704976648E-01
C67 -4.406525862812E-01  4.555883028379E-01  3.638295023352E-01
C68  4.406525862812E-01 -4.441169716205E-02  1.361704976648E-01
C69  4.253480655755E-01  4.750161019445E-01  4.266089051914E-01
C70 -4.253480655755E-01 -2.498389805549E-02  7.339109480857E-02
C71 -4.253480655755E-01 -4.750161019445E-01 -4.266089051914E-01
C72  4.253480655755E-01  2.498389805549E-02 -7.339109480857E-02
C73  3.495886698634E-01  4.584451071870E-01  3.555974263442E-01
C74 -3.495886698634E-01 -4.155489281297E-02  1.444025736558E-01
C75 -3.495886698634E-01 -4.584451071870E-01 -3.555974263442E-01
C76  3.495886698634E-01  4.155489281297E-02 -1.444025736558E-01
H77  3.394267932939E-01  4.124262092300E-01  1.911044992587E-01
H78 -3.394267932939E-01 -8.757379077000E-02  3.088955007413E-01
H79 -3.394267932939E-01 -4.124262092300E-01 -1.911044992587E-01
H80  3.394267932939E-01  8.757379077000E-02 -3.088955007413E-01
C81 -4.853186464856E-01 -4.312814979027E-01 -2.953539050402E-01
C82  4.853186464856E-01  6.871850209731E-02 -2.046460949598E-01
C83  4.853186464856E-01  4.312814979027E-01  2.953539050402E-01
C84 -4.853186464856E-01 -6.871850209731E-02  2.046460949598E-01
H85 -4.740129694125E-01 -3.768890583539E-01 -1.349400378586E-01
H86  4.740129694125E-01  1.231109416461E-01 -3.650599621414E-01
H87  4.740129694125E-01  3.768890583539E-01  1.349400378586E-01
H88 -4.740129694125E-01 -1.231109416461E-01  3.650599621414E-01


#===END

data_OPT_STEP_32

_symmetry_space_group_name_H-M 'P 1'
_cell_length_a     18.04087728
_cell_length_b      7.59593887
_cell_length_c      6.35122089
_cell_angle_alpha   90.000000
_cell_angle_beta   91.307465
_cell_angle_gamma   90.000000

loop_
_atom_site_label
_atom_site_fract_x
_atom_site_fract_y
_atom_site_fract_z
C1  1.590571997224E-01 -3.795056480531E-01  4.827154549788E-01
C2 -1.590571997224E-01  1.204943519469E-01  1.728454502124E-02
C3 -1.590571997224E-01  3.795056480531E-01 -4.827154549788E-01
C4  1.590571997224E-01 -1.204943519469E-01 -1.728454502124E-02
H5  1.756185782675E-01 -2.795831284544E-01 -3.976236679629E-01
H6 -1.756185782675E-01  2.204168715456E-01 -1.023763320371E-01
H7 -1.756185782675E-01  2.795831284544E-01  3.976236679629E-01
H8  1.756185782675E-01 -2.204168715456E-01  1.023763320371E-01
C9  8.496736365102E-02 -3.836740892694E-01  4.099516780687E-01
C10 -8.496736365102E-02  1.163259107306E-01  9.004832193129E-02
C11 -8.496736365102E-02  3.836740892694E-01 -4.099516780687E-01
C12  8.496736365102E-02 -1.163259107306E-01 -9.004832193129E-02
H13  4.439600957736E-02 -2.909758060513E-01  4.780078241381E-01
H14 -4.439600957736E-02  2.090241939487E-01  2.199217586194E-02
H15 -4.439600957736E-02  2.909758060513E-01 -4.780078241381E-01
H16  4.439600957736E-02 -2.090241939487E-01 -2.199217586194E-02
C17  6.229716278020E-02  4.959221055494E-01  2.528888943066E-01
C18 -6.229716278020E-02 -4.077894450611E-03  2.471111056934E-01
C19 -6.229716278020E-02 -4.959221055494E-01 -2.528888943066E-01
C20  6.229716278020E-02  4.077894450611E-03 -2.471111056934E-01
H21  3.292485648730E-03  4.917568906559E-01  1.982939036132E-01
H22 -3.292485648730E-03 -8.243109344076E-03  3.017060963868E-01
H23 -3.292485648730E-03 -4.917568906559E-01 -1.982939036132E-01
H24  3.292485648730E-03  8.243109344076E-03 -3.017060963868E-01
C25  1.147754491198E-01  3.796914526769E-01  1.685171253418E-01
C26 -1.147754491198E-01 -1.203085473231E-01  3.314828746582E-01
C27 -1.147754491198E-01 -3.796914526769E-01 -1.685171253418E-01
C28  1.147754491198E-01  1.203085473231E-01 -3.314828746582E-01
H29  9.800753872330E-02  2.828067863789E-01  4.523458302675E-02
H30 -9.800753872330E-02 -2.171932136211E-01  4.547654169732E-01
H31 -9.800753872330E-02 -2.828067863789E-01 -4.523458302675E-02
H32  9.800753872330E-02  2.171932136211E-01 -4.547654169732E-01
C33  1.887368525680E-01  3.821926288867E-01  2.432355289228E-01
C34 -1.887368525680E-01 -1.178073711133E-01  2.567644710772E-01
C35 -1.887368525680E-01 -3.821926288867E-01 -2.432355289228E-01
C36  1.887368525680E-01  1.178073711133E-01 -2.567644710772E-01
H37  2.284128044512E-01  2.846599638876E-01  1.806967324405E-01
H38 -2.284128044512E-01 -2.153400361124E-01  3.193032675595E-01
H39 -2.284128044512E-01 -2.846599638876E-01 -1.806967324405E-01
H40  2.284128044512E-01  2.153400361124E-01 -3.193032675595E-01
C41  2.122386717211E-01 -4.975085489313E-01  4.017235876598E-01
C42 -2.122386717211E-01  2.491451068665E-03  9.827641234015E-02
C43 -2.122386717211E-01  4.975085489313E-01 -4.017235876598E-01
C44  2.122386717211E-01 -2.491451068665E-03 -9.827641234015E-02
C45  2.908395680147E-01 -4.932729198029E-01  4.816787553222E-01
C46 -2.908395680147E-01  6.727080197123E-03  1.832124467775E-02
C47 -2.908395680147E-01  4.932729198029E-01 -4.816787553222E-01
C48  2.908395680147E-01 -6.727080197124E-03 -1.832124467775E-02
C49  3.074049880257E-01 -4.328940923936E-01 -3.060486896833E-01
C50 -3.074049880257E-01  6.710590760642E-02 -1.939513103167E-01
C51 -3.074049880257E-01  4.328940923936E-01  3.060486896833E-01
C52  3.074049880257E-01 -6.710590760642E-02  1.939513103167E-01
H53  2.611431816720E-01 -4.021859016064E-01 -1.994433000862E-01
H54 -2.611431816720E-01  9.781409839361E-02 -3.005566999138E-01
H55 -2.611431816720E-01  4.021859016064E-01  1.994433000862E-01
H56  2.611431816720E-01 -9.781409839361E-02  3.005566999138E-01
C57  3.794240275444E-01 -4.141843910588E-01 -2.325141713685E-01
C58 -3.794240275444E-01  8.581560894123E-02 -2.674858286315E-01
C59 -3.794240275444E-01  4.141843910588E-01  2.325141713685E-01
C60  3.794240275444E-01 -8.581560894123E-02  2.674858286315E-01
H61  3.908420695869E-01 -3.646684677078E-01 -7.012871375209E-02
H62 -3.908420695869E-01  1.353315322922E-01 -4.298712862479E-01
H63 -3.908420695869E-01  3.646684677078E-01  7.012871375209E-02
H64  3.908420695869E-01 -1.353315322922E-01  4.298712862479E-01
C65  4.410390668540E-01 -4.566348467716E-01 -3.637210437414E-01
C66 -4.410390668540E-01  4.336515322835E-02 -1.362789562586E-01
C67 -4.410390668540E-01  4.566348467716E-01  3.637210437414E-01
C68  4.410390668540E-01 -4.336515322835E-02  1.362789562586E-01
C69  4.251965001409E-01  4.754674611209E-01  4.261315838808E-01
C70 -4.251965001409E-01 -2.453253887909E-02  7.386841611923E-02
C71 -4.251965001409E-01 -4.754674611209E-01 -4.261315838808E-01
C72  4.251965001409E-01  2.453253887909E-02 -7.386841611923E-02
C73  3.492948523892E-01  4.592103186286E-01  3.547636823173E-01
C74 -3.492948523892E-01 -4.078968137145E-02  1.452363176827E-01
C75 -3.492948523892E-01 -4.592103186286E-01 -3.547636823173E-01
C76  3.492948523892E-01  4.078968137145E-02 -1.452363176827E-01
H77  3.387429057230E-01  4.133667565388E-01  1.902760110316E-01
H78 -3.387429057230E-01 -8.663324346122E-02  3.097239889684E-01
H79 -3.387429057230E-01 -4.133667565388E-01 -1.902760110316E-01
H80  3.387429057230E-01  8.663324346122E-02 -3.097239889684E-01
C81 -4.847881812730E-01 -4.324739562490E-01 -2.949201313023E-01
C82  4.847881812730E-01  6.752604375097E-02 -2.050798686977E-01
C83  4.847881812730E-01  4.324739562490E-01  2.949201313023E-01
C84 -4.847881812730E-01 -6.752604375097E-02  2.050798686977E-01
H85 -4.730972911406E-01 -3.772143762538E-01 -1.350552390170E-01
H86  4.730972911406E-01  1.227856237462E-01 -3.649447609830E-01
H87  4.730972911406E-01  3.772143762538E-01  1.350552390170E-01
H88 -4.730972911406E-01 -1.227856237462E-01  3.649447609830E-01


#===END

data_OPT_STEP_33

_symmetry_space_group_name_H-M 'P 1'
_cell_length_a     18.02693458
_cell_length_b      7.60390129
_cell_length_c      6.34715311
_cell_angle_alpha   90.000000
_cell_angle_beta   90.907407
_cell_angle_gamma   90.000000

loop_
_atom_site_label
_atom_site_fract_x
_atom_site_fract_y
_atom_site_fract_z
C1  1.588941567816E-01 -3.795735421284E-01  4.830485393865E-01
C2 -1.588941567816E-01  1.204264578716E-01  1.695146061345E-02
C3 -1.588941567816E-01  3.795735421284E-01 -4.830485393865E-01
C4  1.588941567816E-01 -1.204264578716E-01 -1.695146061345E-02
H5  1.752773066063E-01 -2.793776727314E-01 -3.977790847753E-01
H6 -1.752773066063E-01  2.206223272686E-01 -1.022209152247E-01
H7 -1.752773066063E-01  2.793776727314E-01  3.977790847753E-01
H8  1.752773066063E-01 -2.206223272686E-01  1.022209152247E-01
C9  8.491694782939E-02 -3.837500628189E-01  4.103165788120E-01
C10 -8.491694782939E-02  1.162499371811E-01  8.968342118801E-02
C11 -8.491694782939E-02  3.837500628189E-01 -4.103165788120E-01
C12  8.491694782939E-02 -1.162499371811E-01 -8.968342118801E-02
H13  4.430160121190E-02 -2.902253369493E-01  4.773299858519E-01
H14 -4.430160121190E-02  2.097746630507E-01  2.267001414813E-02
H15 -4.430160121190E-02  2.902253369493E-01 -4.773299858519E-01
H16  4.430160121190E-02 -2.097746630507E-01 -2.267001414813E-02
C17  6.253019469653E-02  4.953996704361E-01  2.538591797691E-01
C18 -6.253019469653E-02 -4.600329563910E-03  2.461408202309E-01
C19 -6.253019469653E-02 -4.953996704361E-01 -2.538591797691E-01
C20  6.253019469653E-02  4.600329563910E-03 -2.461408202309E-01
H21  3.635722425795E-03  4.913517028493E-01  1.990723045254E-01
H22 -3.635722425795E-03 -8.648297150689E-03  3.009276954746E-01
H23 -3.635722425795E-03 -4.913517028493E-01 -1.990723045254E-01
H24  3.635722425795E-03  8.648297150689E-03 -3.009276954746E-01
C25  1.151958860767E-01  3.789760287331E-01  1.698603910453E-01
C26 -1.151958860767E-01 -1.210239712669E-01  3.301396089547E-01
C27 -1.151958860767E-01 -3.789760287331E-01 -1.698603910453E-01
C28  1.151958860767E-01  1.210239712669E-01 -3.301396089547E-01
H29  9.862880793530E-02  2.818792588464E-01  4.698407194392E-02
H30 -9.862880793530E-02 -2.181207411536E-01  4.530159280561E-01
H31 -9.862880793530E-02 -2.818792588464E-01 -4.698407194392E-02
H32  9.862880793530E-02  2.181207411536E-01 -4.530159280561E-01
C33  1.890682939539E-01  3.817117417103E-01  2.443334554636E-01
C34 -1.890682939539E-01 -1.182882582897E-01  2.556665445364E-01
C35 -1.890682939539E-01 -3.817117417103E-01 -2.443334554636E-01
C36  1.890682939539E-01  1.182882582897E-01 -2.556665445364E-01
H37  2.289413817523E-01  2.842578904792E-01  1.818290229274E-01
H38 -2.289413817523E-01 -2.157421095208E-01  3.181709770726E-01
H39 -2.289413817523E-01 -2.842578904792E-01 -1.818290229274E-01
H40  2.289413817523E-01  2.157421095208E-01 -3.181709770726E-01
C41  2.122429584354E-01 -4.978495610815E-01  4.024909272851E-01
C42 -2.122429584354E-01  2.150438918521E-03  9.750907271490E-02
C43 -2.122429584354E-01  4.978495610815E-01 -4.024909272851E-01
C44  2.122429584354E-01 -2.150438918521E-03 -9.750907271490E-02
C45  2.907358277000E-01 -4.933270078944E-01  4.822094575237E-01
C46 -2.907358277000E-01  6.672992105572E-03  1.779054247631E-02
C47 -2.907358277000E-01  4.933270078944E-01 -4.822094575237E-01
C48  2.907358277000E-01 -6.672992105572E-03 -1.779054247631E-02
C49  3.068557854251E-01 -4.326992027834E-01 -3.055860666135E-01
C50 -3.068557854251E-01  6.730079721661E-02 -1.944139333865E-01
C51 -3.068557854251E-01  4.326992027834E-01  3.055860666135E-01
C52  3.068557854251E-01 -6.730079721661E-02  1.944139333865E-01
H53  2.603326821017E-01 -4.024341979847E-01 -1.986782269502E-01
H54 -2.603326821017E-01  9.756580201532E-02 -3.013217730498E-01
H55 -2.603326821017E-01  4.024341979847E-01  1.986782269502E-01
H56  2.603326821017E-01 -9.756580201532E-02  3.013217730498E-01
C57  3.787687386657E-01 -4.136812587273E-01 -2.323362245382E-01
C58 -3.787687386657E-01  8.631874127274E-02 -2.676637754618E-01
C59 -3.787687386657E-01  4.136812587273E-01  2.323362245382E-01
C60  3.787687386657E-01 -8.631874127274E-02  2.676637754618E-01
H61  3.898590603553E-01 -3.641253707232E-01 -6.993836258413E-02
H62 -3.898590603553E-01  1.358746292768E-01 -4.300616374159E-01
H63 -3.898590603553E-01  3.641253707232E-01  6.993836258413E-02
H64  3.898590603553E-01 -1.358746292768E-01  4.300616374159E-01
C65  4.407030706542E-01 -4.559924668947E-01 -3.637958887116E-01
C66 -4.407030706542E-01  4.400753310527E-02 -1.362041112884E-01
C67 -4.407030706542E-01  4.559924668947E-01  3.637958887116E-01
C68  4.407030706542E-01 -4.400753310527E-02  1.362041112884E-01
C69  4.253000371056E-01  4.752147156442E-01  4.264367054112E-01
C70 -4.253000371056E-01 -2.478528435585E-02  7.356329458883E-02
C71 -4.253000371056E-01 -4.752147156442E-01 -4.264367054112E-01
C72  4.253000371056E-01  2.478528435585E-02 -7.356329458883E-02
C73  3.494939940392E-01  4.587914168069E-01  3.552996114752E-01
C74 -3.494939940392E-01 -4.120858319307E-02  1.447003885248E-01
C75 -3.494939940392E-01 -4.587914168069E-01 -3.552996114752E-01
C76  3.494939940392E-01  4.120858319307E-02 -1.447003885248E-01
H77  3.392506308022E-01  4.127961431917E-01  1.908641274483E-01
H78 -3.392506308022E-01 -8.720385680834E-02  3.091358725517E-01
H79 -3.392506308022E-01 -4.127961431917E-01 -1.908641274483E-01
H80  3.392506308022E-01  8.720385680834E-02 -3.091358725517E-01
C81 -4.852201220164E-01 -4.317301446446E-01 -2.952232350043E-01
C82  4.852201220164E-01  6.826985535536E-02 -2.047767649957E-01
C83  4.852201220164E-01  4.317301446446E-01  2.952232350043E-01
C84 -4.852201220164E-01 -6.826985535536E-02  2.047767649957E-01
H85 -4.738398197426E-01 -3.768518087188E-01 -1.351182495001E-01
H86  4.738398197426E-01  1.231481912812E-01 -3.648817504999E-01
H87  4.738398197426E-01  3.768518087188E-01  1.351182495001E-01
H88 -4.738398197426E-01 -1.231481912812E-01  3.648817504999E-01


#===END

data_OPT_STEP_34

_symmetry_space_group_name_H-M 'P 1'
_cell_length_a     18.02590674
_cell_length_b      7.60148366
_cell_length_c      6.34866297
_cell_angle_alpha   90.000000
_cell_angle_beta   91.024998
_cell_angle_gamma   90.000000

loop_
_atom_site_label
_atom_site_fract_x
_atom_site_fract_y
_atom_site_fract_z
C1  1.588243340283E-01 -3.799155228717E-01  4.832175256994E-01
C2 -1.588243340283E-01  1.200844771283E-01  1.678247430059E-02
C3 -1.588243340283E-01  3.799155228717E-01 -4.832175256994E-01
C4  1.588243340283E-01 -1.200844771283E-01 -1.678247430059E-02
H5  1.752570750381E-01 -2.799091526819E-01 -3.973185601689E-01
H6 -1.752570750381E-01  2.200908473181E-01 -1.026814398311E-01
H7 -1.752570750381E-01  2.799091526819E-01  3.973185601689E-01
H8  1.752570750381E-01 -2.200908473181E-01  1.026814398311E-01
C9  8.482018180644E-02 -3.838860433031E-01  4.102882943903E-01
C10 -8.482018180644E-02  1.161139566969E-01  8.971170560970E-02
C11 -8.482018180644E-02  3.838860433031E-01 -4.102882943903E-01
C12  8.482018180644E-02 -1.161139566969E-01 -8.971170560970E-02
H13  4.418723961446E-02 -2.908081519516E-01  4.778717612944E-01
H14 -4.418723961446E-02  2.091918480484E-01  2.212823870557E-02
H15 -4.418723961446E-02  2.908081519516E-01 -4.778717612944E-01
H16  4.418723961446E-02 -2.091918480484E-01 -2.212823870557E-02
C17  6.235122074731E-02  4.955462296136E-01  2.534986377845E-01
C18 -6.235122074731E-02 -4.453770386365E-03  2.465013622155E-01
C19 -6.235122074731E-02 -4.955462296136E-01 -2.534986377845E-01
C20  6.235122074731E-02  4.453770386365E-03 -2.465013622155E-01
H21  3.433538031286E-03  4.915554655026E-01  1.986571992854E-01
H22 -3.433538031286E-03 -8.444534497357E-03  3.013428007146E-01
H23 -3.433538031286E-03 -4.915554655026E-01 -1.986571992854E-01
H24  3.433538031286E-03  8.444534497357E-03 -3.013428007146E-01
C25  1.149633248444E-01  3.792185917995E-01  1.693881162875E-01
C26 -1.149633248444E-01 -1.207814082005E-01  3.306118837125E-01
C27 -1.149633248444E-01 -3.792185917995E-01 -1.693881162875E-01
C28  1.149633248444E-01  1.207814082005E-01 -3.306118837125E-01
H29  9.834418502347E-02  2.823709457201E-01  4.628594255129E-02
H30 -9.834418502347E-02 -2.176290542799E-01  4.537140574487E-01
H31 -9.834418502347E-02 -2.823709457201E-01 -4.628594255129E-02
H32  9.834418502347E-02  2.176290542799E-01 -4.537140574487E-01
C33  1.888660364266E-01  3.817633563222E-01  2.440293796359E-01
C34 -1.888660364266E-01 -1.182366436778E-01  2.559706203641E-01
C35 -1.888660364266E-01 -3.817633563222E-01 -2.440293796359E-01
C36  1.888660364266E-01  1.182366436778E-01 -2.559706203641E-01
H37  2.286698729604E-01  2.842721181758E-01  1.815393948876E-01
H38 -2.286698729604E-01 -2.157278818242E-01  3.184606051124E-01
H39 -2.286698729604E-01 -2.842721181758E-01 -1.815393948876E-01
H40  2.286698729604E-01  2.157278818242E-01 -3.184606051124E-01
C41  2.121469327133E-01 -4.979928129129E-01  4.024147640564E-01
C42 -2.121469327133E-01  2.007187087145E-03  9.758523594364E-02
C43 -2.121469327133E-01  4.979928129129E-01 -4.024147640564E-01
C44  2.121469327133E-01 -2.007187087145E-03 -9.758523594364E-02
C45  2.907108396458E-01 -4.934328701374E-01  4.821381344594E-01
C46 -2.907108396458E-01  6.567129862592E-03  1.786186554062E-02
C47 -2.907108396458E-01  4.934328701374E-01 -4.821381344594E-01
C48  2.907108396458E-01 -6.567129862592E-03 -1.786186554062E-02
C49  3.069716466642E-01 -4.330576142834E-01 -3.055525250005E-01
C50 -3.069716466642E-01  6.694238571660E-02 -1.944474749995E-01
C51 -3.069716466642E-01  4.330576142834E-01  3.055525250005E-01
C52  3.069716466642E-01 -6.694238571660E-02  1.944474749995E-01
H53  2.605137226908E-01 -4.030366818730E-01 -1.985640906195E-01
H54 -2.605137226908E-01  9.696331812695E-02 -3.014359093805E-01
H55 -2.605137226908E-01  4.030366818730E-01  1.985640906195E-01
H56  2.605137226908E-01 -9.696331812695E-02  3.014359093805E-01
C57  3.789396710439E-01 -4.137517744840E-01 -2.323802320473E-01
C58 -3.789396710439E-01  8.624822551600E-02 -2.676197679527E-01
C59 -3.789396710439E-01  4.137517744840E-01  2.323802320473E-01
C60  3.789396710439E-01 -8.624822551600E-02  2.676197679527E-01
H61  3.901202325920E-01 -3.643421977568E-01 -6.996185385358E-02
H62 -3.901202325920E-01  1.356578022432E-01 -4.300381461464E-01
H63 -3.901202325920E-01  3.643421977568E-01  6.996185385358E-02
H64  3.901202325920E-01 -1.356578022432E-01  4.300381461464E-01
C65  4.407864991745E-01 -4.556930652259E-01 -3.639791377727E-01
C66 -4.407864991745E-01  4.430693477408E-02 -1.360208622273E-01
C67 -4.407864991745E-01  4.556930652259E-01  3.639791377727E-01
C68  4.407864991745E-01 -4.430693477408E-02  1.360208622273E-01
C69  4.252488556488E-01  4.750454308445E-01  4.264694196610E-01
C70 -4.252488556488E-01 -2.495456915548E-02  7.353058033896E-02
C71 -4.252488556488E-01 -4.750454308445E-01 -4.264694196610E-01
C72  4.252488556488E-01  2.495456915548E-02 -7.353058033896E-02
C73  3.493940085158E-01  4.587026156767E-01  3.552412907190E-01
C74 -3.493940085158E-01 -4.129738432335E-02  1.447587092810E-01
C75 -3.493940085158E-01 -4.587026156767E-01 -3.552412907190E-01
C76  3.493940085158E-01  4.129738432335E-02 -1.447587092810E-01
H77  3.390654076159E-01  4.129178863274E-01  1.907407699706E-01
H78 -3.390654076159E-01 -8.708211367257E-02  3.092592300294E-01
H79 -3.390654076159E-01 -4.129178863274E-01 -1.907407699706E-01
H80  3.390654076159E-01  8.708211367257E-02 -3.092592300294E-01
C81 -4.850885040470E-01 -4.315189645499E-01 -2.953322922521E-01
C82  4.850885040470E-01  6.848103545007E-02 -2.046677077479E-01
C83  4.850885040470E-01  4.315189645499E-01  2.953322922521E-01
C84 -4.850885040470E-01 -6.848103545007E-02  2.046677077479E-01
H85 -4.736193229123E-01 -3.767880948375E-01 -1.351812610732E-01
H86  4.736193229123E-01  1.232119051625E-01 -3.648187389268E-01
H87  4.736193229123E-01  3.767880948375E-01  1.351812610732E-01
H88 -4.736193229123E-01 -1.232119051625E-01  3.648187389268E-01


#===END

data_OPT_STEP_35

_symmetry_space_group_name_H-M 'P 1'
_cell_length_a     18.02505860
_cell_length_b      7.59061958
_cell_length_c      6.34646692
_cell_angle_alpha   90.000000
_cell_angle_beta   91.204259
_cell_angle_gamma   90.000000

loop_
_atom_site_label
_atom_site_fract_x
_atom_site_fract_y
_atom_site_fract_z
C1  1.587293566968E-01 -3.802978241788E-01  4.838259734245E-01
C2 -1.587293566968E-01  1.197021758212E-01  1.617402657550E-02
C3 -1.587293566968E-01  3.802978241788E-01 -4.838259734245E-01
C4  1.587293566968E-01 -1.197021758212E-01 -1.617402657550E-02
H5  1.752263913337E-01 -2.805796664631E-01 -3.961482901680E-01
H6 -1.752263913337E-01  2.194203335369E-01 -1.038517098320E-01
H7 -1.752263913337E-01  2.805796664631E-01  3.961482901680E-01
H8  1.752263913337E-01 -2.194203335369E-01  1.038517098320E-01
C9  8.462892557636E-02 -3.844633654201E-01  4.109789914191E-01
C10 -8.462892557636E-02  1.155366345799E-01  8.902100858085E-02
C11 -8.462892557636E-02  3.844633654201E-01 -4.109789914191E-01
C12  8.462892557636E-02 -1.155366345799E-01 -8.902100858085E-02
H13  4.402158849694E-02 -2.916548124895E-01  4.790596102448E-01
H14 -4.402158849694E-02  2.083451875105E-01  2.094038975525E-02
H15 -4.402158849694E-02  2.916548124895E-01 -4.790596102448E-01
H16  4.402158849694E-02 -2.083451875105E-01 -2.094038975525E-02
C17  6.202961418704E-02  4.951994271981E-01  2.536426065955E-01
C18 -6.202961418704E-02 -4.800572801941E-03  2.463573934045E-01
C19 -6.202961418704E-02 -4.951994271981E-01 -2.536426065955E-01
C20  6.202961418704E-02  4.800572801940E-03 -2.463573934045E-01
H21  3.082997575697E-03  4.914620579275E-01  1.985838446238E-01
H22 -3.082997575697E-03 -8.537942072545E-03  3.014161553762E-01
H23 -3.082997575697E-03 -4.914620579275E-01 -1.985838446238E-01
H24  3.082997575697E-03  8.537942072545E-03 -3.014161553762E-01
C25  1.146076410873E-01  3.792051311815E-01  1.690031075164E-01
C26 -1.146076410873E-01 -1.207948688185E-01  3.309968924836E-01
C27 -1.146076410873E-01 -3.792051311815E-01 -1.690031075164E-01
C28  1.146076410873E-01  1.207948688185E-01 -3.309968924836E-01
H29  9.788299422827E-02  2.822884517517E-01  4.578950700094E-02
H30 -9.788299422827E-02 -2.177115482483E-01  4.542104929991E-01
H31 -9.788299422827E-02 -2.822884517517E-01 -4.578950700094E-02
H32  9.788299422827E-02  2.177115482483E-01 -4.542104929991E-01
C33  1.885855492074E-01  3.816934863025E-01  2.437810981471E-01
C34 -1.885855492074E-01 -1.183065136975E-01  2.562189018529E-01
C35 -1.885855492074E-01 -3.816934863025E-01 -2.437810981471E-01
C36  1.885855492074E-01  1.183065136975E-01 -2.562189018529E-01
H37  2.283447357523E-01  2.841451535241E-01  1.810120821281E-01
H38 -2.283447357523E-01 -2.158548464759E-01  3.189879178719E-01
H39 -2.283447357523E-01 -2.841451535241E-01 -1.810120821281E-01
H40  2.283447357523E-01  2.158548464759E-01 -3.189879178719E-01
C41  2.120111998872E-01 -4.982300266061E-01  4.026378321930E-01
C42 -2.120111998872E-01  1.769973393872E-03  9.736216780696E-02
C43 -2.120111998872E-01  4.982300266061E-01 -4.026378321930E-01
C44  2.120111998872E-01 -1.769973393872E-03 -9.736216780696E-02
C45  2.906855689040E-01 -4.934441305121E-01  4.822895420528E-01
C46 -2.906855689040E-01  6.555869487936E-03  1.771045794722E-02
C47 -2.906855689040E-01  4.934441305121E-01 -4.822895420528E-01
C48  2.906855689040E-01 -6.555869487936E-03 -1.771045794722E-02
C49  3.072021131896E-01 -4.328291937386E-01 -3.053896844658E-01
C50 -3.072021131896E-01  6.717080626141E-02 -1.946103155342E-01
C51 -3.072021131896E-01  4.328291937386E-01  3.053896844658E-01
C52  3.072021131896E-01 -6.717080626141E-02  1.946103155342E-01
H53  2.608559786284E-01 -4.029978478288E-01 -1.982262302080E-01
H54 -2.608559786284E-01  9.700215217123E-02 -3.017737697920E-01
H55 -2.608559786284E-01  4.029978478288E-01  1.982262302080E-01
H56  2.608559786284E-01 -9.700215217123E-02  3.017737697920E-01
C57  3.792553592440E-01 -4.138832790933E-01 -2.320620852483E-01
C58 -3.792553592440E-01  8.611672090666E-02 -2.679379147517E-01
C59 -3.792553592440E-01  4.138832790933E-01  2.320620852483E-01
C60  3.792553592440E-01 -8.611672090666E-02  2.679379147517E-01
H61  3.905827863187E-01 -3.647857112492E-01 -6.947189482072E-02
H62 -3.905827863187E-01  1.352142887508E-01 -4.305281051793E-01
H63 -3.905827863187E-01  3.647857112492E-01  6.947189482072E-02
H64  3.905827863187E-01 -1.352142887508E-01  4.305281051793E-01
C65  4.409477906425E-01 -4.560025961939E-01 -3.637025780191E-01
C66 -4.409477906425E-01  4.399740380614E-02 -1.362974219809E-01
C67 -4.409477906425E-01  4.560025961939E-01  3.637025780191E-01
C68  4.409477906425E-01 -4.399740380614E-02  1.362974219809E-01
C69  4.251599596563E-01  4.750148410703E-01  4.264889447589E-01
C70 -4.251599596563E-01 -2.498515892975E-02  7.351105524108E-02
C71 -4.251599596563E-01 -4.750148410703E-01 -4.264889447589E-01
C72  4.251599596563E-01  2.498515892975E-02 -7.351105524108E-02
C73  3.492122652902E-01  4.581243905489E-01  3.555380029461E-01
C74 -3.492122652902E-01 -4.187560945107E-02  1.444619970539E-01
C75 -3.492122652902E-01 -4.581243905489E-01 -3.555380029461E-01
C76  3.492122652902E-01  4.187560945107E-02 -1.444619970539E-01
H77  3.387308980120E-01  4.126250949594E-01  1.908456031399E-01
H78 -3.387308980120E-01 -8.737490504060E-02  3.091543968601E-01
H79 -3.387308980120E-01 -4.126250949594E-01 -1.908456031399E-01
H80  3.387308980120E-01  8.737490504060E-02 -3.091543968601E-01
C81 -4.848492586716E-01 -4.314979220194E-01 -2.952180675741E-01
C82  4.848492586716E-01  6.850207798061E-02 -2.047819324259E-01
C83  4.848492586716E-01  4.314979220194E-01  2.952180675741E-01
C84 -4.848492586716E-01 -6.850207798061E-02  2.047819324259E-01
H85 -4.732265145158E-01 -3.767219363498E-01 -1.349969857022E-01
H86  4.732265145158E-01  1.232780636502E-01 -3.650030142978E-01
H87  4.732265145158E-01  3.767219363498E-01  1.349969857022E-01
H88 -4.732265145158E-01 -1.232780636502E-01  3.650030142978E-01


#===END

data_OPT_STEP_36

_symmetry_space_group_name_H-M 'P 1'
_cell_length_a     18.02260411
_cell_length_b      7.59903156
_cell_length_c      6.34792346
_cell_angle_alpha   90.000000
_cell_angle_beta   91.057062
_cell_angle_gamma   90.000000

loop_
_atom_site_label
_atom_site_fract_x
_atom_site_fract_y
_atom_site_fract_z
C1  1.587390875238E-01 -3.800624149067E-01  4.834304351590E-01
C2 -1.587390875238E-01  1.199375850933E-01  1.656956484095E-02
C3 -1.587390875238E-01  3.800624149067E-01 -4.834304351590E-01
C4  1.587390875238E-01 -1.199375850933E-01 -1.656956484095E-02
H5  1.751740724742E-01 -2.801977587097E-01 -3.968842436973E-01
H6 -1.751740724742E-01  2.198022412903E-01 -1.031157563027E-01
H7 -1.751740724742E-01  2.801977587097E-01  3.968842436973E-01
H8  1.751740724742E-01 -2.198022412903E-01  1.031157563027E-01
C9  8.470160456079E-02 -3.841196560121E-01  4.105492054692E-01
C10 -8.470160456079E-02  1.158803439879E-01  8.945079453077E-02
C11 -8.470160456079E-02  3.841196560121E-01 -4.105492054692E-01
C12  8.470160456079E-02 -1.158803439879E-01 -8.945079453077E-02
H13  4.406352050112E-02 -2.911399241944E-01  4.783100642608E-01
H14 -4.406352050112E-02  2.088600758056E-01  2.168993573920E-02
H15 -4.406352050112E-02  2.911399241944E-01 -4.783100642608E-01
H16  4.406352050112E-02 -2.088600758056E-01 -2.168993573920E-02
C17  6.221427585069E-02  4.954220446802E-01  2.535594691750E-01
C18 -6.221427585069E-02 -4.577955319816E-03  2.464405308250E-01
C19 -6.221427585069E-02 -4.954220446802E-01 -2.535594691750E-01
C20  6.221427585069E-02  4.577955319816E-03 -2.464405308250E-01
H21  3.289830617655E-03  4.915228670718E-01  1.986353054974E-01
H22 -3.289830617655E-03 -8.477132928188E-03  3.013646945026E-01
H23 -3.289830617655E-03 -4.915228670718E-01 -1.986353054974E-01
H24  3.289830617655E-03  8.477132928188E-03 -3.013646945026E-01
C25  1.148434193425E-01  3.792665269098E-01  1.692379875441E-01
C26 -1.148434193425E-01 -1.207334730902E-01  3.307620124559E-01
C27 -1.148434193425E-01 -3.792665269098E-01 -1.692379875441E-01
C28  1.148434193425E-01  1.207334730902E-01 -3.307620124559E-01
H29  9.820501555876E-02  2.823961200596E-01  4.612320465802E-02
H30 -9.820501555876E-02 -2.176038799404E-01  4.538767953420E-01
H31 -9.820501555876E-02 -2.823961200596E-01 -4.612320465802E-02
H32  9.820501555876E-02  2.176038799404E-01 -4.538767953420E-01
C33  1.887703025854E-01  3.817886132941E-01  2.439297366278E-01
C34 -1.887703025854E-01 -1.182113867059E-01  2.560702633722E-01
C35 -1.887703025854E-01 -3.817886132941E-01 -2.439297366278E-01
C36  1.887703025854E-01  1.182113867059E-01 -2.560702633722E-01
H37  2.285762840064E-01  2.842854101999E-01  1.813459456723E-01
H38 -2.285762840064E-01 -2.157145898001E-01  3.186540543277E-01
H39 -2.285762840064E-01 -2.842854101999E-01 -1.813459456723E-01
H40  2.285762840064E-01  2.157145898001E-01 -3.186540543277E-01
C41  2.120730715800E-01 -4.980610957232E-01  4.024889990976E-01
C42 -2.120730715800E-01  1.938904276768E-03  9.751100090240E-02
C43 -2.120730715800E-01  4.980610957232E-01 -4.024889990976E-01
C44  2.120730715800E-01 -1.938904276768E-03 -9.751100090240E-02
C45  2.906730997771E-01 -4.934082846681E-01  4.821858024112E-01
C46 -2.906730997771E-01  6.591715331941E-03  1.781419758883E-02
C47 -2.906730997771E-01  4.934082846681E-01 -4.821858024112E-01
C48  2.906730997771E-01 -6.591715331941E-03 -1.781419758883E-02
C49  3.069877604438E-01 -4.329088790562E-01 -3.055261429399E-01
C50 -3.069877604438E-01  6.709112094378E-02 -1.944738570601E-01
C51 -3.069877604438E-01  4.329088790562E-01  3.055261429399E-01
C52  3.069877604438E-01 -6.709112094378E-02  1.944738570601E-01
H53  2.605446344137E-01 -4.029806429878E-01 -1.984677026943E-01
H54 -2.605446344137E-01  9.701935701223E-02 -3.015322973057E-01
H55 -2.605446344137E-01  4.029806429878E-01  1.984677026943E-01
H56  2.605446344137E-01 -9.701935701223E-02  3.015322973057E-01
C57  3.789832636964E-01 -4.137362340344E-01 -2.323007284114E-01
C58 -3.789832636964E-01  8.626376596557E-02 -2.676992715886E-01
C59 -3.789832636964E-01  4.137362340344E-01  2.323007284114E-01
C60  3.789832636964E-01 -8.626376596557E-02  2.676992715886E-01
H61  3.901884846537E-01 -3.644416036316E-01 -6.982977613670E-02
H62 -3.901884846537E-01  1.355583963684E-01 -4.301702238633E-01
H63 -3.901884846537E-01  3.644416036316E-01  6.982977613670E-02
H64  3.901884846537E-01 -1.355583963684E-01  4.301702238633E-01
C65  4.408089577922E-01 -4.557788166685E-01 -3.638949873695E-01
C66 -4.408089577922E-01  4.422118333145E-02 -1.361050126305E-01
C67 -4.408089577922E-01  4.557788166685E-01  3.638949873695E-01
C68  4.408089577922E-01 -4.422118333145E-02  1.361050126305E-01
C69  4.252190911472E-01  4.750411993033E-01  4.264802114949E-01
C70 -4.252190911472E-01 -2.495880069669E-02  7.351978850507E-02
C71 -4.252190911472E-01 -4.750411993033E-01 -4.264802114949E-01
C72  4.252190911472E-01  2.495880069669E-02 -7.351978850507E-02
C73  3.493320444064E-01  4.584700972564E-01  3.553716477524E-01
C74 -3.493320444064E-01 -4.152990274358E-02  1.446283522476E-01
C75 -3.493320444064E-01 -4.584700972564E-01 -3.553716477524E-01
C76  3.493320444064E-01  4.152990274358E-02 -1.446283522476E-01
H77  3.389736963133E-01  4.127948491439E-01  1.908113670717E-01
H78 -3.389736963133E-01 -8.720515085613E-02  3.091886329283E-01
H79 -3.389736963133E-01 -4.127948491439E-01 -1.908113670717E-01
H80  3.389736963133E-01  8.720515085613E-02 -3.091886329283E-01
C81 -4.850400662257E-01 -4.314651585940E-01 -2.953228432630E-01
C82  4.850400662257E-01  6.853484140599E-02 -2.046771567370E-01
C83  4.850400662257E-01  4.314651585940E-01  2.953228432630E-01
C84 -4.850400662257E-01 -6.853484140599E-02  2.046771567370E-01
H85 -4.735435490383E-01 -3.767051603410E-01 -1.351589683177E-01
H86  4.735435490383E-01  1.232948396590E-01 -3.648410316823E-01
H87  4.735435490383E-01  3.767051603410E-01  1.351589683177E-01
H88 -4.735435490383E-01 -1.232948396590E-01  3.648410316823E-01


#===END

data_OPT_STEP_37

_symmetry_space_group_name_H-M 'P 1'
_cell_length_a     18.01627536
_cell_length_b      7.59930791
_cell_length_c      6.34892852
_cell_angle_alpha   90.000000
_cell_angle_beta   91.048561
_cell_angle_gamma   90.000000

loop_
_atom_site_label
_atom_site_fract_x
_atom_site_fract_y
_atom_site_fract_z
C1  1.586052828795E-01 -3.800942440622E-01  4.834560701551E-01
C2 -1.586052828795E-01  1.199057559378E-01  1.654392984485E-02
C3 -1.586052828795E-01  3.800942440622E-01 -4.834560701551E-01
C4  1.586052828795E-01 -1.199057559378E-01 -1.654392984485E-02
H5  1.750222519068E-01 -2.803190421604E-01 -3.967440992125E-01
H6 -1.750222519068E-01  2.196809578396E-01 -1.032559007875E-01
H7 -1.750222519068E-01  2.803190421604E-01  3.967440992125E-01
H8  1.750222519068E-01 -2.196809578396E-01  1.032559007875E-01
C9  8.454238116628E-02 -3.841913512833E-01  4.106149780313E-01
C10 -8.454238116628E-02  1.158086487167E-01  8.938502196872E-02
C11 -8.454238116628E-02  3.841913512833E-01 -4.106149780313E-01
C12  8.454238116628E-02 -1.158086487167E-01 -8.938502196872E-02
H13  4.388313400199E-02 -2.912875595274E-01  4.784965758523E-01
H14 -4.388313400199E-02  2.087124404726E-01  2.150342414775E-02
H15 -4.388313400199E-02  2.912875595274E-01 -4.784965758523E-01
H16  4.388313400199E-02 -2.087124404726E-01 -2.150342414775E-02
C17  6.207363094982E-02  4.954767416878E-01  2.534850235871E-01
C18 -6.207363094982E-02 -4.523258312213E-03  2.465149764129E-01
C19 -6.207363094982E-02 -4.954767416878E-01 -2.534850235871E-01
C20  6.207363094982E-02  4.523258312213E-03 -2.465149764129E-01
H21  3.126128069118E-03  4.915897601106E-01  1.985992472692E-01
H22 -3.126128069118E-03 -8.410239889408E-03  3.014007527308E-01
H23 -3.126128069118E-03 -4.915897601106E-01 -1.985992472692E-01
H24  3.126128069118E-03  8.410239889407E-03 -3.014007527308E-01
C25  1.147604910738E-01  3.795006308638E-01  1.689665867581E-01
C26 -1.147604910738E-01 -1.204993691362E-01  3.310334132419E-01
C27 -1.147604910738E-01 -3.795006308638E-01 -1.689665867581E-01
C28  1.147604910738E-01  1.204993691362E-01 -3.310334132419E-01
H29  9.814946570226E-02  2.827489178459E-01  4.573839162348E-02
H30 -9.814946570226E-02 -2.172510821541E-01  4.542616083765E-01
H31 -9.814946570226E-02 -2.827489178459E-01 -4.573839162348E-02
H32  9.814946570226E-02  2.172510821541E-01 -4.542616083765E-01
C33  1.887160516261E-01  3.820738495229E-01  2.436230017407E-01
C34 -1.887160516261E-01 -1.179261504771E-01  2.563769982593E-01
C35 -1.887160516261E-01 -3.820738495229E-01 -2.436230017407E-01
C36  1.887160516261E-01  1.179261504771E-01 -2.563769982593E-01
H37  2.285764841898E-01  2.847381359634E-01  1.807799310366E-01
H38 -2.285764841898E-01 -2.152618640366E-01  3.192200689634E-01
H39 -2.285764841898E-01 -2.847381359634E-01 -1.807799310366E-01
H40  2.285764841898E-01  2.152618640366E-01 -3.192200689634E-01
C41  2.119891263462E-01 -4.979509469869E-01  4.023570466604E-01
C42 -2.119891263462E-01  2.049053013051E-03  9.764295333964E-02
C43 -2.119891263462E-01  4.979509469869E-01 -4.023570466604E-01
C44  2.119891263462E-01 -2.049053013051E-03 -9.764295333964E-02
C45  2.906021200269E-01 -4.933529445603E-01  4.820900804946E-01
C46 -2.906021200269E-01  6.647055439653E-03  1.790991950540E-02
C47 -2.906021200269E-01  4.933529445603E-01 -4.820900804946E-01
C48  2.906021200269E-01 -6.647055439653E-03 -1.790991950540E-02
C49  3.069047301739E-01 -4.329031321435E-01 -3.056463803273E-01
C50 -3.069047301739E-01  6.709686785649E-02 -1.943536196727E-01
C51 -3.069047301739E-01  4.329031321435E-01  3.056463803273E-01
C52  3.069047301739E-01 -6.709686785649E-02  1.943536196727E-01
H53  2.604411871900E-01 -4.030008785873E-01 -1.985937693778E-01
H54 -2.604411871900E-01  9.699912141273E-02 -3.014062306222E-01
H55 -2.604411871900E-01  4.030008785873E-01  1.985937693778E-01
H56  2.604411871900E-01 -9.699912141273E-02  3.014062306222E-01
C57  3.789170629642E-01 -4.136750600027E-01 -2.324355357937E-01
C58 -3.789170629642E-01  8.632493999734E-02 -2.675644642063E-01
C59 -3.789170629642E-01  4.136750600027E-01  2.324355357937E-01
C60  3.789170629642E-01 -8.632493999734E-02  2.675644642063E-01
H61  3.901100987841E-01 -3.643453294681E-01 -6.999973632795E-02
H62 -3.901100987841E-01  1.356546705319E-01 -4.300002636721E-01
H63 -3.901100987841E-01  3.643453294681E-01  6.999973632795E-02
H64  3.901100987841E-01 -1.356546705319E-01  4.300002636721E-01
C65  4.407754983949E-01 -4.557280910338E-01 -3.639701759291E-01
C66 -4.407754983949E-01  4.427190896618E-02 -1.360298240709E-01
C67 -4.407754983949E-01  4.557280910338E-01  3.639701759291E-01
C68  4.407754983949E-01 -4.427190896618E-02  1.360298240709E-01
C69  4.251977991957E-01  4.750781989301E-01  4.264542689543E-01
C70 -4.251977991957E-01 -2.492180106992E-02  7.354573104574E-02
C71 -4.251977991957E-01 -4.750781989301E-01 -4.264542689543E-01
C72  4.251977991957E-01  2.492180106992E-02 -7.354573104574E-02
C73  3.492919174314E-01  4.586128432102E-01  3.552914838034E-01
C74 -3.492919174314E-01 -4.138715678976E-02  1.447085161966E-01
C75 -3.492919174314E-01 -4.586128432102E-01 -3.552914838034E-01
C76  3.492919174314E-01  4.138715678976E-02 -1.447085161966E-01
H77  3.389395496191E-01  4.129102124703E-01  1.907667556111E-01
H78 -3.389395496191E-01 -8.708978752970E-02  3.092332443889E-01
H79 -3.389395496191E-01 -4.129102124703E-01 -1.907667556111E-01
H80  3.389395496191E-01  8.708978752970E-02 -3.092332443889E-01
C81 -4.850543193941E-01 -4.314459372945E-01 -2.953679289145E-01
C82  4.850543193941E-01  6.855406270550E-02 -2.046320710855E-01
C83  4.850543193941E-01  4.314459372945E-01  2.953679289145E-01
C84 -4.850543193941E-01 -6.855406270550E-02  2.046320710855E-01
H85 -4.735709187391E-01 -3.767161458046E-01 -1.351999297961E-01
H86  4.735709187391E-01  1.232838541953E-01 -3.648000702039E-01
H87  4.735709187391E-01  3.767161458046E-01  1.351999297961E-01
H88 -4.735709187391E-01 -1.232838541954E-01  3.648000702039E-01


#===END

data_OPT_STEP_38

_symmetry_space_group_name_H-M 'P 1'
_cell_length_a     18.01876543
_cell_length_b      7.59012581
_cell_length_c      6.35257688
_cell_angle_alpha   90.000000
_cell_angle_beta   91.131382
_cell_angle_gamma   90.000000

loop_
_atom_site_label
_atom_site_fract_x
_atom_site_fract_y
_atom_site_fract_z
C1  1.586394349603E-01 -3.800929855664E-01  4.832674230700E-01
C2 -1.586394349603E-01  1.199070144336E-01  1.673257692995E-02
C3 -1.586394349603E-01  3.800929855664E-01 -4.832674230700E-01
C4  1.586394349603E-01 -1.199070144336E-01 -1.673257692995E-02
H5  1.751199465127E-01 -2.802170636206E-01 -3.969583273264E-01
H6 -1.751199465127E-01  2.197829363794E-01 -1.030416726736E-01
H7 -1.751199465127E-01  2.802170636206E-01  3.969583273264E-01
H8  1.751199465127E-01 -2.197829363794E-01  1.030416726736E-01
C9  8.454110800568E-02 -3.842164434336E-01  4.105017386167E-01
C10 -8.454110800568E-02  1.157835565664E-01  8.949826138333E-02
C11 -8.454110800568E-02  3.842164434336E-01 -4.105017386167E-01
C12  8.454110800568E-02 -1.157835565664E-01 -8.949826138333E-02
H13  4.390732373191E-02 -2.914060916593E-01  4.785308167195E-01
H14 -4.390732373191E-02  2.085939083407E-01  2.146918328050E-02
H15 -4.390732373191E-02  2.914060916593E-01 -4.785308167195E-01
H16  4.390732373191E-02 -2.085939083407E-01 -2.146918328050E-02
C17  6.198786832416E-02  4.955155781173E-01  2.532443391485E-01
C18 -6.198786832416E-02 -4.484421882734E-03  2.467556608515E-01
C19 -6.198786832416E-02 -4.955155781173E-01 -2.532443391485E-01
C20  6.198786832416E-02  4.484421882734E-03 -2.467556608515E-01
H21  3.005309654333E-03  4.918953910365E-01  1.983788527175E-01
H22 -3.005309654333E-03 -8.104608963492E-03  3.016211472825E-01
H23 -3.005309654333E-03 -4.918953910365E-01 -1.983788527175E-01
H24  3.005309654333E-03  8.104608963492E-03 -3.016211472825E-01
C25  1.146263509375E-01  3.794595007173E-01  1.686054259966E-01
C26 -1.146263509375E-01 -1.205404992827E-01  3.313945740034E-01
C27 -1.146263509375E-01 -3.794595007173E-01 -1.686054259966E-01
C28  1.146263509375E-01  1.205404992827E-01 -3.313945740034E-01
H29  9.798513601414E-02  2.828015108376E-01  4.525919138106E-02
H30 -9.798513601414E-02 -2.171984891624E-01  4.547408086189E-01
H31 -9.798513601414E-02 -2.828015108376E-01 -4.525919138106E-02
H32  9.798513601414E-02  2.171984891624E-01 -4.547408086189E-01
C33  1.886285401467E-01  3.820869631895E-01  2.431779793432E-01
C34 -1.886285401467E-01 -1.179130368105E-01  2.568220206568E-01
C35 -1.886285401467E-01 -3.820869631895E-01 -2.431779793432E-01
C36  1.886285401467E-01  1.179130368105E-01 -2.568220206568E-01
H37  2.285165814251E-01  2.849907883958E-01  1.798265250391E-01
H38 -2.285165814251E-01 -2.150092116042E-01  3.201734749609E-01
H39 -2.285165814251E-01 -2.849907883958E-01 -1.798265250391E-01
H40  2.285165814251E-01  2.150092116042E-01 -3.201734749609E-01
C41  2.119860004756E-01 -4.979184820865E-01  4.019787194942E-01
C42 -2.119860004756E-01  2.081517913549E-03  9.802128050576E-02
C43 -2.119860004756E-01  4.979184820865E-01 -4.019787194942E-01
C44  2.119860004756E-01 -2.081517913549E-03 -9.802128050576E-02
C45  2.906172153238E-01 -4.933715294616E-01  4.817402944374E-01
C46 -2.906172153238E-01  6.628470538425E-03  1.825970556258E-02
C47 -2.906172153238E-01  4.933715294616E-01 -4.817402944374E-01
C48  2.906172153238E-01 -6.628470538426E-03 -1.825970556258E-02
C49  3.069830621042E-01 -4.331323986181E-01 -3.059935530249E-01
C50 -3.069830621042E-01  6.686760138189E-02 -1.940064469751E-01
C51 -3.069830621042E-01  4.331323986181E-01  3.059935530249E-01
C52  3.069830621042E-01 -6.686760138189E-02  1.940064469751E-01
H53  2.605421984222E-01 -4.031794525304E-01 -1.990469829358E-01
H54 -2.605421984222E-01  9.682054746960E-02 -3.009530170642E-01
H55 -2.605421984222E-01  4.031794525304E-01  1.990469829358E-01
H56  2.605421984222E-01 -9.682054746960E-02  3.009530170642E-01
C57  3.790060811304E-01 -4.141167252386E-01 -2.326075887072E-01
C58 -3.790060811304E-01  8.588327476144E-02 -2.673924112928E-01
C59 -3.790060811304E-01  4.141167252386E-01  2.326075887072E-01
C60  3.790060811304E-01 -8.588327476144E-02  2.673924112928E-01
H61  3.902205705837E-01 -3.647932691729E-01 -7.019433158726E-02
H62 -3.902205705837E-01  1.352067308271E-01 -4.298056684127E-01
H63 -3.902205705837E-01  3.647932691729E-01  7.019433158726E-02
H64  3.902205705837E-01 -1.352067308271E-01  4.298056684127E-01
C65  4.408218997483E-01 -4.559917579130E-01 -3.640294459279E-01
C66 -4.408218997483E-01  4.400824208696E-02 -1.359705540721E-01
C67 -4.408218997483E-01  4.559917579130E-01  3.640294459279E-01
C68  4.408218997483E-01 -4.400824208696E-02  1.359705540721E-01
C69  4.251819345092E-01  4.751057288731E-01  4.263272574019E-01
C70 -4.251819345092E-01 -2.489427112687E-02  7.367274259807E-02
C71 -4.251819345092E-01 -4.751057288731E-01 -4.263272574019E-01
C72  4.251819345092E-01  2.489427112687E-02 -7.367274259807E-02
C73  3.492632989640E-01  4.587105864084E-01  3.550476909522E-01
C74 -3.492632989640E-01 -4.128941359164E-02  1.449523090478E-01
C75 -3.492632989640E-01 -4.587105864084E-01 -3.550476909522E-01
C76  3.492632989640E-01  4.128941359164E-02 -1.449523090478E-01
H77  3.388839852962E-01  4.129763013220E-01  1.905568325203E-01
H78 -3.388839852962E-01 -8.702369867801E-02  3.094431674797E-01
H79 -3.388839852962E-01 -4.129763013220E-01 -1.905568325203E-01
H80  3.388839852962E-01  8.702369867801E-02 -3.094431674797E-01
C81 -4.849963030208E-01 -4.317612900514E-01 -2.952770286254E-01
C82  4.849963030208E-01  6.823870994859E-02 -2.047229713746E-01
C83  4.849963030208E-01  4.317612900514E-01  2.952770286254E-01
C84 -4.849963030208E-01 -6.823870994859E-02  2.047229713746E-01
H85 -4.734892435371E-01 -3.771303769626E-01 -1.350753425922E-01
H86  4.734892435371E-01  1.228696230374E-01 -3.649246574078E-01
H87  4.734892435371E-01  3.771303769626E-01  1.350753425922E-01
H88 -4.734892435371E-01 -1.228696230374E-01  3.649246574078E-01


#===END

data_OPT_STEP_39

_symmetry_space_group_name_H-M 'P 1'
_cell_length_a     18.01656788
_cell_length_b      7.59060517
_cell_length_c      6.35343714
_cell_angle_alpha   90.000000
_cell_angle_beta   91.117344
_cell_angle_gamma   90.000000

loop_
_atom_site_label
_atom_site_fract_x
_atom_site_fract_y
_atom_site_fract_z
C1  1.585972075298E-01 -3.801205791815E-01  4.833139986478E-01
C2 -1.585972075298E-01  1.198794208185E-01  1.668600135218E-02
C3 -1.585972075298E-01  3.801205791815E-01 -4.833139986478E-01
C4  1.585972075298E-01 -1.198794208185E-01 -1.668600135218E-02
H5  1.750617365630E-01 -2.803462459915E-01 -3.968375122773E-01
H6 -1.750617365630E-01  2.196537540085E-01 -1.031624877227E-01
H7 -1.750617365630E-01  2.803462459915E-01  3.968375122773E-01
H8  1.750617365630E-01 -2.196537540085E-01  1.031624877227E-01
C9  8.450478490257E-02 -3.841814598124E-01  4.105007744198E-01
C10 -8.450478490257E-02  1.158185401876E-01  8.949922558020E-02
C11 -8.450478490257E-02  3.841814598124E-01 -4.105007744198E-01
C12  8.450478490257E-02 -1.158185401876E-01 -8.949922558020E-02
H13  4.386324452593E-02 -2.913692462211E-01  4.785339376103E-01
H14 -4.386324452593E-02  2.086307537789E-01  2.146606238970E-02
H15 -4.386324452593E-02  2.913692462211E-01 -4.785339376103E-01
H16  4.386324452593E-02 -2.086307537789E-01 -2.146606238970E-02
C17  6.196732101995E-02  4.955875512812E-01  2.532121388568E-01
C18 -6.196732101995E-02 -4.412448718803E-03  2.467878611432E-01
C19 -6.196732101995E-02 -4.955875512812E-01 -2.532121388568E-01
C20  6.196732101995E-02  4.412448718803E-03 -2.467878611432E-01
H21  2.986998424425E-03  4.920423803015E-01  1.983008962778E-01
H22 -2.986998424425E-03 -7.957619698505E-03  3.016991037222E-01
H23 -2.986998424425E-03 -4.920423803015E-01 -1.983008962778E-01
H24  2.986998424425E-03  7.957619698505E-03 -3.016991037222E-01
C25  1.146187654545E-01  3.795990457110E-01  1.685092491502E-01
C26 -1.146187654545E-01 -1.204009542890E-01  3.314907508498E-01
C27 -1.146187654545E-01 -3.795990457110E-01 -1.685092491502E-01
C28  1.146187654545E-01  1.204009542890E-01 -3.314907508498E-01
H29  9.798788912903E-02  2.829704990956E-01  4.516093236846E-02
H30 -9.798788912903E-02 -2.170295009044E-01  4.548390676315E-01
H31 -9.798788912903E-02 -2.829704990956E-01 -4.516093236846E-02
H32  9.798788912903E-02  2.170295009044E-01 -4.548390676315E-01
C33  1.886159900554E-01  3.821994948408E-01  2.430980776428E-01
C34 -1.886159900554E-01 -1.178005051592E-01  2.569019223572E-01
C35 -1.886159900554E-01 -3.821994948408E-01 -2.430980776428E-01
C36  1.886159900554E-01  1.178005051592E-01 -2.569019223572E-01
H37  2.284919770778E-01  2.850082989548E-01  1.798699562126E-01
H38 -2.284919770778E-01 -2.149917010452E-01  3.201300437874E-01
H39 -2.284919770778E-01 -2.850082989548E-01 -1.798699562126E-01
H40  2.284919770778E-01  2.149917010452E-01 -3.201300437874E-01
C41  2.119519609374E-01 -4.979568086027E-01  4.020170409034E-01
C42 -2.119519609374E-01  2.043191397327E-03  9.798295909664E-02
C43 -2.119519609374E-01  4.979568086027E-01 -4.020170409034E-01
C44  2.119519609374E-01 -2.043191397327E-03 -9.798295909664E-02
C45  2.905864938553E-01 -4.934641835766E-01  4.817859242084E-01
C46 -2.905864938553E-01  6.535816423391E-03  1.821407579155E-02
C47 -2.905864938553E-01  4.934641835766E-01 -4.817859242084E-01
C48  2.905864938553E-01 -6.535816423391E-03 -1.821407579155E-02
C49  3.069400591483E-01 -4.332296571694E-01 -3.059702719271E-01
C50 -3.069400591483E-01  6.677034283060E-02 -1.940297280729E-01
C51 -3.069400591483E-01  4.332296571694E-01  3.059702719271E-01
C52  3.069400591483E-01 -6.677034283060E-02  1.940297280729E-01
H53  2.604878332409E-01 -4.034058586279E-01 -1.989877866625E-01
H54 -2.604878332409E-01  9.659414137207E-02 -3.010122133375E-01
H55 -2.604878332409E-01  4.034058586279E-01  1.989877866625E-01
H56  2.604878332409E-01 -9.659414137207E-02  3.010122133375E-01
C57  3.789676616730E-01 -4.140399455726E-01 -2.326701204724E-01
C58 -3.789676616730E-01  8.596005442739E-02 -2.673298795276E-01
C59 -3.789676616730E-01  4.140399455726E-01  2.326701204724E-01
C60  3.789676616730E-01 -8.596005442739E-02  2.673298795276E-01
H61  3.901684197287E-01 -3.648159736552E-01 -7.023577085916E-02
H62 -3.901684197287E-01  1.351840263448E-01 -4.297642291408E-01
H63 -3.901684197287E-01  3.648159736552E-01  7.023577085916E-02
H64  3.901684197287E-01 -1.351840263448E-01  4.297642291408E-01
C65  4.408039612613E-01 -4.559541727440E-01 -3.640596868590E-01
C66 -4.408039612613E-01  4.404582725601E-02 -1.359403131410E-01
C67 -4.408039612613E-01  4.559541727440E-01  3.640596868590E-01
C68  4.408039612613E-01 -4.404582725601E-02  1.359403131410E-01
C69  4.251791020790E-01  4.751517635498E-01  4.263211513739E-01
C70 -4.251791020790E-01 -2.484823645022E-02  7.367884862610E-02
C71 -4.251791020790E-01 -4.751517635498E-01 -4.263211513739E-01
C72  4.251791020790E-01  2.484823645022E-02 -7.367884862610E-02
C73  3.492577724211E-01  4.588103917774E-01  3.550261246034E-01
C74 -3.492577724211E-01 -4.118960822259E-02  1.449738753966E-01
C75 -3.492577724211E-01 -4.588103917774E-01 -3.550261246034E-01
C76  3.492577724211E-01  4.118960822259E-02 -1.449738753966E-01
H77  3.388955762306E-01  4.131997723128E-01  1.905110306191E-01
H78 -3.388955762306E-01 -8.680022768724E-02  3.094889693809E-01
H79 -3.388955762306E-01 -4.131997723128E-01 -1.905110306191E-01
H80  3.388955762306E-01  8.680022768724E-02 -3.094889693809E-01
C81 -4.850105626955E-01 -4.317368116096E-01 -2.953165305551E-01
C82  4.850105626955E-01  6.826318839044E-02 -2.046834694449E-01
C83  4.850105626955E-01  4.317368116096E-01  2.953165305551E-01
C84 -4.850105626955E-01 -6.826318839044E-02  2.046834694449E-01
H85 -4.735119706088E-01 -3.771437193184E-01 -1.351348646799E-01
H86  4.735119706088E-01  1.228562806816E-01 -3.648651353201E-01
H87  4.735119706088E-01  3.771437193184E-01  1.351348646799E-01
H88 -4.735119706088E-01 -1.228562806816E-01  3.648651353201E-01


#===END

data_OPT_STEP_40

_symmetry_space_group_name_H-M 'P 1'
_cell_length_a     18.01172893
_cell_length_b      7.59201200
_cell_length_c      6.35540769
_cell_angle_alpha   90.000000
_cell_angle_beta   91.088607
_cell_angle_gamma   90.000000

loop_
_atom_site_label
_atom_site_fract_x
_atom_site_fract_y
_atom_site_fract_z
C1  1.584820067072E-01 -3.802086150436E-01  4.835163037266E-01
C2 -1.584820067072E-01  1.197913849564E-01  1.648369627338E-02
C3 -1.584820067072E-01  3.802086150436E-01 -4.835163037266E-01
C4  1.584820067072E-01 -1.197913849564E-01 -1.648369627338E-02
H5  1.749094433358E-01 -2.805314603210E-01 -3.965680017620E-01
H6 -1.749094433358E-01  2.194685396790E-01 -1.034319982380E-01
H7 -1.749094433358E-01  2.805314603210E-01  3.965680017620E-01
H8  1.749094433358E-01 -2.194685396790E-01  1.034319982380E-01
C9  8.439649539449E-02 -3.842403397719E-01  4.106442977626E-01
C10 -8.439649539449E-02  1.157596602281E-01  8.935570223744E-02
C11 -8.439649539449E-02  3.842403397719E-01 -4.106442977626E-01
C12  8.439649539449E-02 -1.157596602281E-01 -8.935570223744E-02
H13  4.372918323685E-02 -2.913857194572E-01  4.786284581608E-01
H14 -4.372918323685E-02  2.086142805428E-01  2.137154183923E-02
H15 -4.372918323685E-02  2.913857194572E-01 -4.786284581608E-01
H16  4.372918323685E-02 -2.086142805428E-01 -2.137154183923E-02
C17  6.193101916566E-02  4.957415025242E-01  2.531653833503E-01
C18 -6.193101916566E-02 -4.258497475816E-03  2.468346166497E-01
C19 -6.193101916566E-02 -4.957415025242E-01 -2.531653833503E-01
C20  6.193101916566E-02  4.258497475815E-03 -2.468346166497E-01
H21  2.952077694359E-03  4.922130664313E-01  1.981993558206E-01
H22 -2.952077694359E-03 -7.786933568739E-03  3.018006441794E-01
H23 -2.952077694359E-03 -4.922130664313E-01 -1.981993558206E-01
H24  2.952077694359E-03  7.786933568739E-03 -3.018006441794E-01
C25  1.146208879028E-01  3.798083974688E-01  1.684711386089E-01
C26 -1.146208879028E-01 -1.201916025312E-01  3.315288613911E-01
C27 -1.146208879028E-01 -3.798083974688E-01 -1.684711386089E-01
C28  1.146208879028E-01  1.201916025312E-01 -3.315288613911E-01
H29  9.802633198014E-02  2.832403092373E-01  4.507170896011E-02
H30 -9.802633198014E-02 -2.167596907627E-01  4.549282910399E-01
H31 -9.802633198014E-02 -2.832403092373E-01 -4.507170896011E-02
H32  9.802633198014E-02  2.167596907627E-01 -4.549282910399E-01
C33  1.885904579581E-01  3.822366634018E-01  2.432466156763E-01
C34 -1.885904579581E-01 -1.177633365982E-01  2.567533843237E-01
C35 -1.885904579581E-01 -3.822366634018E-01 -2.432466156763E-01
C36  1.885904579581E-01  1.177633365982E-01 -2.567533843237E-01
H37  2.284722914004E-01  2.850382898885E-01  1.801537585673E-01
H38 -2.284722914004E-01 -2.149617101115E-01  3.198462414327E-01
H39 -2.284722914004E-01 -2.850382898885E-01 -1.801537585673E-01
H40  2.284722914004E-01  2.149617101115E-01 -3.198462414327E-01
C41  2.118846084623E-01 -4.979549515799E-01  4.021655997459E-01
C42 -2.118846084623E-01  2.045048420073E-03  9.783440025405E-02
C43 -2.118846084623E-01  4.979549515799E-01 -4.021655997459E-01
C44  2.118846084623E-01 -2.045048420073E-03 -9.783440025405E-02
C45  2.905328739327E-01 -4.934342089427E-01  4.818753642715E-01
C46 -2.905328739327E-01  6.565791057313E-03  1.812463572848E-02
C47 -2.905328739327E-01  4.934342089427E-01 -4.818753642715E-01
C48  2.905328739327E-01 -6.565791057314E-03 -1.812463572848E-02
C49  3.068655302858E-01 -4.333116056233E-01 -3.058969042337E-01
C50 -3.068655302858E-01  6.668839437672E-02 -1.941030957663E-01
C51 -3.068655302858E-01  4.333116056233E-01  3.058969042337E-01
C52  3.068655302858E-01 -6.668839437672E-02  1.941030957663E-01
H53  2.603975986442E-01 -4.035608066969E-01 -1.989126642323E-01
H54 -2.603975986442E-01  9.643919330311E-02 -3.010873357677E-01
H55 -2.603975986442E-01  4.035608066969E-01  1.989126642323E-01
H56  2.603975986442E-01 -9.643919330311E-02  3.010873357677E-01
C57  3.789034439311E-01 -4.141664896308E-01 -2.326361256458E-01
C58 -3.789034439311E-01  8.583351036923E-02 -2.673638743542E-01
C59 -3.789034439311E-01  4.141664896308E-01  2.326361256458E-01
C60  3.789034439311E-01 -8.583351036923E-02  2.673638743542E-01
H61  3.900955072178E-01 -3.650881923563E-01 -7.019048367152E-02
H62 -3.900955072178E-01  1.349118076437E-01 -4.298095163285E-01
H63 -3.900955072178E-01  3.650881923563E-01  7.019048367152E-02
H64  3.900955072178E-01 -1.349118076437E-01  4.298095163285E-01
C65  4.407731044327E-01 -4.559315000027E-01 -3.640803248267E-01
C66 -4.407731044327E-01  4.406849999731E-02 -1.359196751733E-01
C67 -4.407731044327E-01  4.559315000027E-01  3.640803248267E-01
C68  4.407731044327E-01 -4.406849999731E-02  1.359196751733E-01
C69  4.251707710696E-01  4.752079300604E-01  4.263534612531E-01
C70 -4.251707710696E-01 -2.479206993963E-02  7.364653874691E-02
C71 -4.251707710696E-01 -4.752079300604E-01 -4.263534612531E-01
C72  4.251707710696E-01  2.479206993963E-02 -7.364653874691E-02
C73  3.492378194761E-01  4.588840814407E-01  3.551066940919E-01
C74 -3.492378194761E-01 -4.111591855931E-02  1.448933059081E-01
C75 -3.492378194761E-01 -4.588840814407E-01 -3.551066940919E-01
C76  3.492378194761E-01  4.111591855931E-02 -1.448933059081E-01
H77  3.388901076565E-01  4.134465887168E-01  1.905905720626E-01
H78 -3.388901076565E-01 -8.655341128321E-02  3.094094279374E-01
H79 -3.388901076565E-01 -4.134465887168E-01 -1.905905720626E-01
H80  3.388901076565E-01  8.655341128321E-02 -3.094094279374E-01
C81 -4.850317021891E-01 -4.317300271487E-01 -2.953873711329E-01
C82  4.850317021891E-01  6.826997285125E-02 -2.046126288671E-01
C83  4.850317021891E-01  4.317300271487E-01  2.953873711329E-01
C84 -4.850317021891E-01 -6.826997285125E-02  2.046126288671E-01
H85 -4.735383599670E-01 -3.771884058547E-01 -1.352583717559E-01
H86  4.735383599670E-01  1.228115941453E-01 -3.647416282441E-01
H87  4.735383599670E-01  3.771884058547E-01  1.352583717559E-01
H88 -4.735383599670E-01 -1.228115941453E-01  3.647416282441E-01


#===END

data_OPT_STEP_41

_symmetry_space_group_name_H-M 'P 1'
_cell_length_a     18.00460813
_cell_length_b      7.58850368
_cell_length_c      6.35851302
_cell_angle_alpha   90.000000
_cell_angle_beta   91.003631
_cell_angle_gamma   90.000000

loop_
_atom_site_label
_atom_site_fract_x
_atom_site_fract_y
_atom_site_fract_z
C1  1.583810792774E-01 -3.801988159984E-01  4.833770741900E-01
C2 -1.583810792774E-01  1.198011840016E-01  1.662292581004E-02
C3 -1.583810792774E-01  3.801988159984E-01 -4.833770741900E-01
C4  1.583810792774E-01 -1.198011840016E-01 -1.662292581004E-02
H5  1.747631659510E-01 -2.805237476556E-01 -3.967056323691E-01
H6 -1.747631659510E-01  2.194762523444E-01 -1.032943676309E-01
H7 -1.747631659510E-01  2.805237476556E-01  3.967056323691E-01
H8  1.747631659510E-01 -2.194762523444E-01  1.032943676309E-01
C9  8.431923968889E-02 -3.841065186613E-01  4.104432103084E-01
C10 -8.431923968889E-02  1.158934813387E-01  8.955678969161E-02
C11 -8.431923968889E-02  3.841065186613E-01 -4.104432103084E-01
C12  8.431923968889E-02 -1.158934813387E-01 -8.955678969161E-02
H13  4.360245233066E-02 -2.912418553972E-01  4.784185892017E-01
H14 -4.360245233066E-02  2.087581446028E-01  2.158141079831E-02
H15 -4.360245233066E-02  2.912418553972E-01 -4.784185892017E-01
H16  4.360245233066E-02 -2.087581446028E-01 -2.158141079831E-02
C17  6.191354522295E-02  4.958367810139E-01  2.530122406570E-01
C18 -6.191354522295E-02 -4.163218986149E-03  2.469877593430E-01
C19 -6.191354522295E-02 -4.958367810139E-01 -2.530122406570E-01
C20  6.191354522295E-02  4.163218986148E-03 -2.469877593430E-01
H21  2.937301098625E-03  4.924415271677E-01  1.980669680485E-01
H22 -2.937301098625E-03 -7.558472832275E-03  3.019330319515E-01
H23 -2.937301098625E-03 -4.924415271677E-01 -1.980669680485E-01
H24  2.937301098625E-03  7.558472832275E-03 -3.019330319515E-01
C25  1.146580996296E-01  3.798951492234E-01  1.682756724784E-01
C26 -1.146580996296E-01 -1.201048507766E-01  3.317243275216E-01
C27 -1.146580996296E-01 -3.798951492234E-01 -1.682756724784E-01
C28  1.146580996296E-01  1.201048507766E-01 -3.317243275216E-01
H29  9.812433834727E-02  2.834118783602E-01  4.478911921698E-02
H30 -9.812433834727E-02 -2.165881216398E-01  4.552108807830E-01
H31 -9.812433834727E-02 -2.834118783602E-01 -4.478911921698E-02
H32  9.812433834727E-02  2.165881216398E-01 -4.552108807830E-01
C33  1.886234845271E-01  3.823147082760E-01  2.430014176455E-01
C34 -1.886234845271E-01 -1.176852917240E-01  2.569985823545E-01
C35 -1.886234845271E-01 -3.823147082760E-01 -2.430014176455E-01
C36  1.886234845271E-01  1.176852917240E-01 -2.569985823545E-01
H37  2.285499610766E-01  2.851150992856E-01  1.798873557420E-01
H38 -2.285499610766E-01 -2.148849007144E-01  3.201126442580E-01
H39 -2.285499610766E-01 -2.851150992856E-01 -1.798873557420E-01
H40  2.285499610766E-01  2.148849007144E-01 -3.201126442580E-01
C41  2.118407018343E-01 -4.979471308270E-01  4.019683725675E-01
C42 -2.118407018343E-01  2.052869172953E-03  9.803162743253E-02
C43 -2.118407018343E-01  4.979471308270E-01 -4.019683725675E-01
C44  2.118407018343E-01 -2.052869172953E-03 -9.803162743253E-02
C45  2.904658658028E-01 -4.935001319569E-01  4.817175016368E-01
C46 -2.904658658028E-01  6.499868043053E-03  1.828249836321E-02
C47 -2.904658658028E-01  4.935001319569E-01 -4.817175016368E-01
C48  2.904658658028E-01 -6.499868043053E-03 -1.828249836321E-02
C49  3.066696430624E-01 -4.334074502570E-01 -3.061210815071E-01
C50 -3.066696430624E-01  6.659254974303E-02 -1.938789184929E-01
C51 -3.066696430624E-01  4.334074502570E-01  3.061210815071E-01
C52  3.066696430624E-01 -6.659254974303E-02  1.938789184929E-01
H53  2.601225505484E-01 -4.038253700747E-01 -1.991658544627E-01
H54 -2.601225505484E-01  9.617462992531E-02 -3.008341455373E-01
H55 -2.601225505484E-01  4.038253700747E-01  1.991658544627E-01
H56  2.601225505484E-01 -9.617462992531E-02  3.008341455373E-01
C57  3.786880268379E-01 -4.142049140150E-01 -2.328479488952E-01
C58 -3.786880268379E-01  8.579508598502E-02 -2.671520511048E-01
C59 -3.786880268379E-01  4.142049140150E-01  2.328479488952E-01
C60  3.786880268379E-01 -8.579508598502E-02  2.671520511048E-01
H61  3.897869258695E-01 -3.652214296117E-01 -7.042152457614E-02
H62 -3.897869258695E-01  1.347785703883E-01 -4.295784754239E-01
H63 -3.897869258695E-01  3.652214296117E-01  7.042152457614E-02
H64  3.897869258695E-01 -1.347785703883E-01  4.295784754239E-01
C65  4.406648880671E-01 -4.559701197501E-01 -3.641715177583E-01
C66 -4.406648880671E-01  4.402988024992E-02 -1.358284822417E-01
C67 -4.406648880671E-01  4.559701197501E-01  3.641715177583E-01
C68  4.406648880671E-01 -4.402988024992E-02  1.358284822417E-01
C69  4.251900954170E-01  4.751831978683E-01  4.263272149866E-01
C70 -4.251900954170E-01 -2.481680213171E-02  7.367278501338E-02
C71 -4.251900954170E-01 -4.751831978683E-01 -4.263272149866E-01
C72  4.251900954170E-01  2.481680213171E-02 -7.367278501338E-02
C73  3.492727173232E-01  4.588356510767E-01  3.550514554992E-01
C74 -3.492727173232E-01 -4.116434892330E-02  1.449485445008E-01
C75 -3.492727173232E-01 -4.588356510767E-01 -3.550514554992E-01
C76  3.492727173232E-01  4.116434892330E-02 -1.449485445008E-01
H77  3.390132055403E-01  4.135286623181E-01  1.905629768300E-01
H78 -3.390132055403E-01 -8.647133768192E-02  3.094370231700E-01
H79 -3.390132055403E-01 -4.135286623181E-01 -1.905629768300E-01
H80  3.390132055403E-01  8.647133768192E-02 -3.094370231700E-01
C81 -4.851559353423E-01 -4.317678102919E-01 -2.954425808717E-01
C82  4.851559353423E-01  6.823218970809E-02 -2.045574191283E-01
C83  4.851559353423E-01  4.317678102919E-01  2.954425808717E-01
C84 -4.851559353423E-01 -6.823218970809E-02  2.045574191283E-01
H85 -4.737466900637E-01 -3.772301408060E-01 -1.353674289862E-01
H86  4.737466900637E-01  1.227698591940E-01 -3.646325710138E-01
H87  4.737466900637E-01  3.772301408060E-01  1.353674289862E-01
H88 -4.737466900637E-01 -1.227698591940E-01  3.646325710138E-01


#===END

data_OPT_STEP_42

_symmetry_space_group_name_H-M 'P 1'
_cell_length_a     17.99775726
_cell_length_b      7.57676801
_cell_length_c      6.36734751
_cell_angle_alpha   90.000000
_cell_angle_beta   90.916882
_cell_angle_gamma   90.000000

loop_
_atom_site_label
_atom_site_fract_x
_atom_site_fract_y
_atom_site_fract_z
C1  1.582920350440E-01 -3.800081403661E-01  4.829083533788E-01
C2 -1.582920350440E-01  1.199918596339E-01  1.709164662115E-02
C3 -1.582920350440E-01  3.800081403661E-01 -4.829083533788E-01
C4  1.582920350440E-01 -1.199918596339E-01 -1.709164662115E-02
H5  1.745997782730E-01 -2.804786155659E-01 -3.970391235358E-01
H6 -1.745997782730E-01  2.195213844341E-01 -1.029608764642E-01
H7 -1.745997782730E-01  2.804786155659E-01  3.970391235358E-01
H8  1.745997782730E-01 -2.195213844341E-01  1.029608764642E-01
C9  8.424245233742E-02 -3.839142390198E-01  4.100653619997E-01
C10 -8.424245233742E-02  1.160857609802E-01  8.993463800033E-02
C11 -8.424245233742E-02  3.839142390198E-01 -4.100653619997E-01
C12  8.424245233742E-02 -1.160857609802E-01 -8.993463800033E-02
H13  4.345738584846E-02 -2.910350522083E-01  4.779784515518E-01
H14 -4.345738584846E-02  2.089649477917E-01  2.202154844818E-02
H15 -4.345738584846E-02  2.910350522083E-01 -4.779784515518E-01
H16  4.345738584846E-02 -2.089649477917E-01 -2.202154844818E-02
C17  6.190885037723E-02  4.960108070890E-01  2.526771488281E-01
C18 -6.190885037723E-02 -3.989192910956E-03  2.473228511719E-01
C19 -6.190885037723E-02 -4.960108070890E-01 -2.526771488281E-01
C20  6.190885037723E-02  3.989192910955E-03 -2.473228511719E-01
H21  2.934160278586E-03  4.928585850839E-01  1.978041922612E-01
H22 -2.934160278586E-03 -7.141414916070E-03  3.021958077388E-01
H23 -2.934160278586E-03 -4.928585850839E-01 -1.978041922612E-01
H24  2.934160278586E-03  7.141414916069E-03 -3.021958077388E-01
C25  1.147135805461E-01  3.799974113968E-01  1.679000188212E-01
C26 -1.147135805461E-01 -1.200025886032E-01  3.320999811788E-01
C27 -1.147135805461E-01 -3.799974113968E-01 -1.679000188212E-01
C28  1.147135805461E-01  1.200025886032E-01 -3.320999811788E-01
H29  9.823039463902E-02  2.833255120130E-01  4.452360490114E-02
H30 -9.823039463902E-02 -2.166744879870E-01  4.554763950989E-01
H31 -9.823039463902E-02 -2.833255120130E-01 -4.452360490114E-02
H32  9.823039463902E-02  2.166744879870E-01 -4.554763950989E-01
C33  1.886705956533E-01  3.823292203842E-01  2.425890261005E-01
C34 -1.886705956533E-01 -1.176707796158E-01  2.574109738995E-01
C35 -1.886705956533E-01 -3.823292203842E-01 -2.425890261005E-01
C36  1.886705956533E-01  1.176707796158E-01 -2.574109738995E-01
H37  2.286479052288E-01  2.849721278432E-01  1.794808877016E-01
H38 -2.286479052288E-01 -2.150278721568E-01  3.205191122984E-01
H39 -2.286479052288E-01 -2.849721278432E-01 -1.794808877016E-01
H40  2.286479052288E-01  2.150278721568E-01 -3.205191122984E-01
C41  2.117967350419E-01 -4.979953354595E-01  4.016106561096E-01
C42 -2.117967350419E-01  2.004664540531E-03  9.838934389041E-02
C43 -2.117967350419E-01  4.979953354595E-01 -4.016106561096E-01
C44  2.117967350419E-01 -2.004664540532E-03 -9.838934389041E-02
C45  2.904003513909E-01 -4.935229171341E-01  4.813151602355E-01
C46 -2.904003513909E-01  6.477082865867E-03  1.868483976445E-02
C47 -2.904003513909E-01  4.935229171341E-01 -4.813151602355E-01
C48  2.904003513909E-01 -6.477082865867E-03 -1.868483976445E-02
C49  3.064339368613E-01 -4.337973065723E-01 -3.066018123920E-01
C50 -3.064339368613E-01  6.620269342770E-02 -1.933981876080E-01
C51 -3.064339368613E-01  4.337973065723E-01  3.066018123920E-01
C52  3.064339368613E-01 -6.620269342770E-02  1.933981876080E-01
H53  2.597851824658E-01 -4.041503382915E-01 -1.999242669090E-01
H54 -2.597851824658E-01  9.584966170849E-02 -3.000757330910E-01
H55 -2.597851824658E-01  4.041503382915E-01  1.999242669090E-01
H56  2.597851824658E-01 -9.584966170849E-02  3.000757330910E-01
C57  3.784209516081E-01 -4.145350779142E-01 -2.332858003094E-01
C58 -3.784209516081E-01  8.546492208577E-02 -2.667141996906E-01
C59 -3.784209516081E-01  4.145350779142E-01  2.332858003094E-01
C60  3.784209516081E-01 -8.546492208577E-02  2.667141996906E-01
H61  3.893870589470E-01 -3.656905279179E-01 -7.096973255785E-02
H62 -3.893870589470E-01  1.343094720820E-01 -4.290302674421E-01
H63 -3.893870589470E-01  3.656905279179E-01  7.096973255785E-02
H64  3.893870589470E-01 -1.343094720821E-01  4.290302674421E-01
C65  4.405306809478E-01 -4.561243123473E-01 -3.643834234350E-01
C66 -4.405306809478E-01  4.387568765266E-02 -1.356165765650E-01
C67 -4.405306809478E-01  4.561243123473E-01  3.643834234350E-01
C68  4.405306809478E-01 -4.387568765266E-02  1.356165765650E-01
C69  4.252216825153E-01  4.752483061756E-01  4.262255906391E-01
C70 -4.252216825153E-01 -2.475169382443E-02  7.377440936085E-02
C71 -4.252216825153E-01 -4.752483061756E-01 -4.262255906391E-01
C72  4.252216825153E-01  2.475169382443E-02 -7.377440936085E-02
C73  3.493342439443E-01  4.589845453232E-01  3.548378740696E-01
C74 -3.493342439443E-01 -4.101545467685E-02  1.451621259304E-01
C75 -3.493342439443E-01 -4.589845453232E-01 -3.548378740696E-01
C76  3.493342439443E-01  4.101545467685E-02 -1.451621259304E-01
H77  3.392031083442E-01  4.138368550830E-01  1.904877453389E-01
H78 -3.392031083442E-01 -8.616314491699E-02  3.095122546611E-01
H79 -3.392031083442E-01 -4.138368550830E-01 -1.904877453389E-01
H80  3.392031083442E-01  8.616314491699E-02 -3.095122546611E-01
C81 -4.853156627801E-01 -4.319994915171E-01 -2.955488022786E-01
C82  4.853156627801E-01  6.800050848294E-02 -2.044511977214E-01
C83  4.853156627801E-01  4.319994915171E-01  2.955488022786E-01
C84 -4.853156627801E-01 -6.800050848294E-02  2.044511977214E-01
H85 -4.740192315356E-01 -3.776699242721E-01 -1.355345035203E-01
H86  4.740192315356E-01  1.223300757279E-01 -3.644654964797E-01
H87  4.740192315356E-01  3.776699242721E-01  1.355345035203E-01
H88 -4.740192315356E-01 -1.223300757279E-01  3.644654964797E-01


#===END

data_OPT_STEP_43

_symmetry_space_group_name_H-M 'P 1'
_cell_length_a     17.99911331
_cell_length_b      7.57476361
_cell_length_c      6.36971339
_cell_angle_alpha   90.000000
_cell_angle_beta   90.950017
_cell_angle_gamma   90.000000

loop_
_atom_site_label
_atom_site_fract_x
_atom_site_fract_y
_atom_site_fract_z
C1  1.582794552602E-01 -3.800928055789E-01  4.830461462440E-01
C2 -1.582794552602E-01  1.199071944211E-01  1.695385375601E-02
C3 -1.582794552602E-01  3.800928055789E-01 -4.830461462440E-01
C4  1.582794552602E-01 -1.199071944211E-01 -1.695385375601E-02
H5  1.746043969151E-01 -2.804614490437E-01 -3.969705032659E-01
H6 -1.746043969151E-01  2.195385509563E-01 -1.030294967341E-01
H7 -1.746043969151E-01  2.804614490437E-01  3.969705032659E-01
H8  1.746043969151E-01 -2.195385509563E-01  1.030294967341E-01
C9  8.422722806670E-02 -3.839193259568E-01  4.101334160992E-01
C10 -8.422722806670E-02  1.160806740432E-01  8.986658390085E-02
C11 -8.422722806670E-02  3.839193259568E-01 -4.101334160992E-01
C12  8.422722806670E-02 -1.160806740432E-01 -8.986658390085E-02
H13  4.344003274493E-02 -2.910276399643E-01  4.780313514339E-01
H14 -4.344003274493E-02  2.089723600357E-01  2.196864856610E-02
H15 -4.344003274493E-02  2.910276399643E-01 -4.780313514339E-01
H16  4.344003274493E-02 -2.089723600357E-01 -2.196864856610E-02
C17  6.188506952997E-02  4.960631356373E-01  2.526680484793E-01
C18 -6.188506952997E-02 -3.936864362683E-03  2.473319515207E-01
C19 -6.188506952997E-02 -4.960631356373E-01 -2.526680484793E-01
C20  6.188506952997E-02  3.936864362682E-03 -2.473319515207E-01
H21  2.901838439711E-03  4.928879530562E-01  1.978103502369E-01
H22 -2.901838439711E-03 -7.112046943797E-03  3.021896497631E-01
H23 -2.901838439711E-03 -4.928879530562E-01 -1.978103502369E-01
H24  2.901838439711E-03  7.112046943797E-03 -3.021896497631E-01
C25  1.146900508076E-01  3.800738223273E-01  1.678428192429E-01
C26 -1.146900508076E-01 -1.199261776727E-01  3.321571807571E-01
C27 -1.146900508076E-01 -3.800738223273E-01 -1.678428192429E-01
C28  1.146900508076E-01  1.199261776727E-01 -3.321571807571E-01
H29  9.823394948171E-02  2.836578926254E-01  4.416874655403E-02
H30 -9.823394948171E-02 -2.163421073746E-01  4.558312534460E-01
H31 -9.823394948171E-02 -2.836578926254E-01 -4.416874655403E-02
H32  9.823394948171E-02  2.163421073746E-01 -4.558312534460E-01
C33  1.886518500199E-01  3.823876666171E-01  2.425464920244E-01
C34 -1.886518500199E-01 -1.176123333829E-01  2.574535079756E-01
C35 -1.886518500199E-01 -3.823876666171E-01 -2.425464920244E-01
C36  1.886518500199E-01  1.176123333829E-01 -2.574535079756E-01
H37  2.286430025820E-01  2.851413756973E-01  1.792694681231E-01
H38 -2.286430025820E-01 -2.148586243027E-01  3.207305318769E-01
H39 -2.286430025820E-01 -2.851413756973E-01 -1.792694681231E-01
H40  2.286430025820E-01  2.148586243027E-01 -3.207305318769E-01
C41  2.117932274436E-01 -4.979529443306E-01  4.016096427442E-01
C42 -2.117932274436E-01  2.047055669437E-03  9.839035725577E-02
C43 -2.117932274436E-01  4.979529443306E-01 -4.016096427442E-01
C44  2.117932274436E-01 -2.047055669437E-03 -9.839035725577E-02
C45  2.904034285509E-01 -4.935700612722E-01  4.813563745256E-01
C46 -2.904034285509E-01  6.429938727808E-03  1.864362547437E-02
C47 -2.904034285509E-01  4.935700612722E-01 -4.813563745256E-01
C48  2.904034285509E-01 -6.429938727809E-03 -1.864362547437E-02
C49  3.064746458513E-01 -4.338250564636E-01 -3.066414263874E-01
C50 -3.064746458513E-01  6.617494353637E-02 -1.933585736126E-01
C51 -3.064746458513E-01  4.338250564636E-01  3.066414263874E-01
C52  3.064746458513E-01 -6.617494353637E-02  1.933585736126E-01
H53  2.598385522809E-01 -4.043984923819E-01 -1.999202905458E-01
H54 -2.598385522809E-01  9.560150761807E-02 -3.000797094542E-01
H55 -2.598385522809E-01  4.043984923819E-01  1.999202905458E-01
H56  2.598385522809E-01 -9.560150761807E-02  3.000797094542E-01
C57  3.784742402237E-01 -4.146825021226E-01 -2.333046668187E-01
C58 -3.784742402237E-01  8.531749787736E-02 -2.666953331813E-01
C59 -3.784742402237E-01  4.146825021226E-01  2.333046668187E-01
C60  3.784742402237E-01 -8.531749787736E-02  2.666953331813E-01
H61  3.894599973058E-01 -3.659819630075E-01 -7.097765433008E-02
H62 -3.894599973058E-01  1.340180369925E-01 -4.290223456699E-01
H63 -3.894599973058E-01  3.659819630075E-01  7.097765433008E-02
H64  3.894599973058E-01 -1.340180369925E-01  4.290223456699E-01
C65  4.405583135858E-01 -4.562227305495E-01 -3.643801392693E-01
C66 -4.405583135858E-01  4.377726945054E-02 -1.356198607307E-01
C67 -4.405583135858E-01  4.562227305495E-01  3.643801392693E-01
C68  4.405583135858E-01 -4.377726945054E-02  1.356198607307E-01
C69  4.252108340677E-01  4.752728483083E-01  4.262494456954E-01
C70 -4.252108340677E-01 -2.472715169169E-02  7.375055430464E-02
C71 -4.252108340677E-01 -4.752728483083E-01 -4.262494456954E-01
C72  4.252108340677E-01  2.472715169169E-02 -7.375055430464E-02
C73  3.493145158191E-01  4.589883032888E-01  3.549028435037E-01
C74 -3.493145158191E-01 -4.101169671115E-02  1.450971564963E-01
C75 -3.493145158191E-01 -4.589883032888E-01 -3.549028435037E-01
C76  3.493145158191E-01  4.101169671115E-02 -1.450971564963E-01
H77  3.391733999552E-01  4.139607416226E-01  1.905441656651E-01
H78 -3.391733999552E-01 -8.603925837736E-02  3.094558343349E-01
H79 -3.391733999552E-01 -4.139607416226E-01 -1.905441656651E-01
H80  3.391733999552E-01  8.603925837736E-02 -3.094558343349E-01
C81 -4.852757701817E-01 -4.321069698669E-01 -2.955733765248E-01
C82  4.852757701817E-01  6.789303013311E-02 -2.044266234752E-01
C83  4.852757701817E-01  4.321069698669E-01  2.955733765248E-01
C84 -4.852757701817E-01 -6.789303013311E-02  2.044266234752E-01
H85 -4.739576172996E-01 -3.778085616353E-01 -1.355978927009E-01
H86  4.739576172996E-01  1.221914383647E-01 -3.644021072991E-01
H87  4.739576172996E-01  3.778085616353E-01  1.355978927009E-01
H88 -4.739576172996E-01 -1.221914383647E-01  3.644021072991E-01


#===END

data_OPT_STEP_44

_symmetry_space_group_name_H-M 'P 1'
_cell_length_a     17.99878412
_cell_length_b      7.57142526
_cell_length_c      6.37202514
_cell_angle_alpha   90.000000
_cell_angle_beta   90.952695
_cell_angle_gamma   90.000000

loop_
_atom_site_label
_atom_site_fract_x
_atom_site_fract_y
_atom_site_fract_z
C1  1.582569225480E-01 -3.801204230029E-01  4.830470124509E-01
C2 -1.582569225480E-01  1.198795769971E-01  1.695298754909E-02
C3 -1.582569225480E-01  3.801204230029E-01 -4.830470124509E-01
C4  1.582569225480E-01 -1.198795769971E-01 -1.695298754909E-02
H5  1.745629091304E-01 -2.804421051712E-01 -3.969762040899E-01
H6 -1.745629091304E-01  2.195578948288E-01 -1.030237959101E-01
H7 -1.745629091304E-01  2.804421051712E-01  3.969762040899E-01
H8  1.745629091304E-01 -2.195578948288E-01  1.030237959101E-01
C9  8.420566588249E-02 -3.840191338802E-01  4.101656689708E-01
C10 -8.420566588249E-02  1.159808661198E-01  8.983433102920E-02
C11 -8.420566588249E-02  3.840191338802E-01 -4.101656689708E-01
C12  8.420566588249E-02 -1.159808661198E-01 -8.983433102920E-02
H13  4.339687379896E-02 -2.911771987719E-01  4.781281543854E-01
H14 -4.339687379896E-02  2.088228012281E-01  2.187184561457E-02
H15 -4.339687379896E-02  2.911771987719E-01 -4.781281543854E-01
H16  4.339687379896E-02 -2.088228012281E-01 -2.187184561457E-02
C17  6.189045165273E-02  4.959628216574E-01  2.526746441986E-01
C18 -6.189045165273E-02 -4.037178342621E-03  2.473253558014E-01
C19 -6.189045165273E-02 -4.959628216574E-01 -2.526746441986E-01
C20  6.189045165273E-02  4.037178342621E-03 -2.473253558014E-01
H21  2.913077903831E-03  4.926853329570E-01  1.978233075836E-01
H22 -2.913077903831E-03 -7.314667043039E-03  3.021766924164E-01
H23 -2.913077903831E-03 -4.926853329570E-01 -1.978233075836E-01
H24  2.913077903831E-03  7.314667043039E-03 -3.021766924164E-01
C25  1.147212907256E-01  3.799898198188E-01  1.678576256132E-01
C26 -1.147212907256E-01 -1.200101801811E-01  3.321423743868E-01
C27 -1.147212907256E-01 -3.799898198188E-01 -1.678576256132E-01
C28  1.147212907256E-01  1.200101801811E-01 -3.321423743868E-01
H29  9.828740447486E-02  2.835908850483E-01  4.414108984284E-02
H30 -9.828740447486E-02 -2.164091149517E-01  4.558589101572E-01
H31 -9.828740447486E-02 -2.835908850483E-01 -4.414108984284E-02
H32  9.828740447486E-02  2.164091149517E-01 -4.558589101572E-01
C33  1.886781409312E-01  3.823600460096E-01  2.425483386503E-01
C34 -1.886781409312E-01 -1.176399539904E-01  2.574516613497E-01
C35 -1.886781409312E-01 -3.823600460096E-01 -2.425483386503E-01
C36  1.886781409312E-01  1.176399539904E-01 -2.574516613497E-01
H37  2.286888406702E-01  2.851574350539E-01  1.792565590876E-01
H38 -2.286888406702E-01 -2.148425649461E-01  3.207434409124E-01
H39 -2.286888406702E-01 -2.851574350539E-01 -1.792565590876E-01
H40  2.286888406702E-01  2.148425649461E-01 -3.207434409124E-01
C41  2.117978754177E-01 -4.979208411173E-01  4.015773527819E-01
C42 -2.117978754177E-01  2.079158882717E-03  9.842264721812E-02
C43 -2.117978754177E-01  4.979208411173E-01 -4.015773527819E-01
C44  2.117978754177E-01 -2.079158882717E-03 -9.842264721812E-02
C45  2.904055297210E-01 -4.935302060108E-01  4.813233364645E-01
C46 -2.904055297210E-01  6.469793989177E-03  1.867666353547E-02
C47 -2.904055297210E-01  4.935302060108E-01 -4.813233364645E-01
C48  2.904055297210E-01 -6.469793989178E-03 -1.867666353547E-02
C49  3.064799376188E-01 -4.337993050300E-01 -3.067382451725E-01
C50 -3.064799376188E-01  6.620069496998E-02 -1.932617548275E-01
C51 -3.064799376188E-01  4.337993050300E-01  3.067382451725E-01
C52  3.064799376188E-01 -6.620069496998E-02  1.932617548275E-01
H53  2.598425345730E-01 -4.043524284644E-01 -2.000592565690E-01
H54 -2.598425345730E-01  9.564757153563E-02 -2.999407434310E-01
H55 -2.598425345730E-01  4.043524284644E-01  2.000592565690E-01
H56  2.598425345730E-01 -9.564757153563E-02  2.999407434310E-01
C57  3.784797366418E-01 -4.147582481634E-01 -2.333788250947E-01
C58 -3.784797366418E-01  8.524175183657E-02 -2.666211749053E-01
C59 -3.784797366418E-01  4.147582481634E-01  2.333788250947E-01
C60  3.784797366418E-01 -8.524175183657E-02  2.666211749053E-01
H61  3.894671062013E-01 -3.660393569870E-01 -7.111774874585E-02
H62 -3.894671062013E-01  1.339606430130E-01 -4.288822512541E-01
H63 -3.894671062013E-01  3.660393569870E-01  7.111774874585E-02
H64  3.894671062013E-01 -1.339606430130E-01  4.288822512541E-01
C65  4.405603546291E-01 -4.562590253921E-01 -3.644176582849E-01
C66 -4.405603546291E-01  4.374097460788E-02 -1.355823417151E-01
C67 -4.405603546291E-01  4.562590253921E-01  3.644176582849E-01
C68  4.405603546291E-01 -4.374097460788E-02  1.355823417151E-01
C69  4.252104450344E-01  4.752718928937E-01  4.262553283619E-01
C70 -4.252104450344E-01 -2.472810710629E-02  7.374467163806E-02
C71 -4.252104450344E-01 -4.752718928937E-01 -4.262553283619E-01
C72  4.252104450344E-01  2.472810710629E-02 -7.374467163806E-02
C73  3.493119816307E-01  4.590082437004E-01  3.549179237270E-01
C74 -3.493119816307E-01 -4.099175629957E-02  1.450820762730E-01
C75 -3.493119816307E-01 -4.590082437004E-01 -3.549179237270E-01
C76  3.493119816307E-01  4.099175629957E-02 -1.450820762730E-01
H77  3.391687661485E-01  4.139707836888E-01  1.906170055186E-01
H78 -3.391687661485E-01 -8.602921631120E-02  3.093829944814E-01
H79 -3.391687661485E-01 -4.139707836888E-01 -1.906170055186E-01
H80  3.391687661485E-01  8.602921631120E-02 -3.093829944814E-01
C81 -4.852742178050E-01 -4.321560800118E-01 -2.956046416484E-01
C82  4.852742178050E-01  6.784391998820E-02 -2.043953583516E-01
C83  4.852742178050E-01  4.321560800118E-01  2.956046416484E-01
C84 -4.852742178050E-01 -6.784391998820E-02  2.043953583516E-01
H85 -4.739593889885E-01 -3.778702551974E-01 -1.356639159557E-01
H86  4.739593889885E-01  1.221297448026E-01 -3.643360840443E-01
H87  4.739593889885E-01  3.778702551974E-01  1.356639159557E-01
H88 -4.739593889885E-01 -1.221297448026E-01  3.643360840443E-01


#===END

data_OPT_STEP_45

_symmetry_space_group_name_H-M 'P 1'
_cell_length_a     17.99993152
_cell_length_b      7.56047988
_cell_length_c      6.38076974
_cell_angle_alpha   90.000000
_cell_angle_beta   90.954172
_cell_angle_gamma   90.000000

loop_
_atom_site_label
_atom_site_fract_x
_atom_site_fract_y
_atom_site_fract_z
C1  1.582406514359E-01 -3.801276336117E-01  4.828568333657E-01
C2 -1.582406514359E-01  1.198723663883E-01  1.714316663432E-02
C3 -1.582406514359E-01  3.801276336117E-01 -4.828568333657E-01
C4  1.582406514359E-01 -1.198723663883E-01 -1.714316663432E-02
H5  1.745005313776E-01 -2.803967167327E-01 -3.971567038715E-01
H6 -1.745005313776E-01  2.196032832673E-01 -1.028432961285E-01
H7 -1.745005313776E-01  2.803967167327E-01  3.971567038715E-01
H8  1.745005313776E-01 -2.196032832673E-01  1.028432961285E-01
C9  8.419312523851E-02 -3.841473473731E-01  4.100803017673E-01
C10 -8.419312523851E-02  1.158526526269E-01  8.991969823268E-02
C11 -8.419312523851E-02  3.841473473731E-01 -4.100803017673E-01
C12  8.419312523851E-02 -1.158526526269E-01 -8.991969823268E-02
H13  4.333619278586E-02 -2.913916548008E-01  4.781597249039E-01
H14 -4.333619278586E-02  2.086083451992E-01  2.184027509610E-02
H15 -4.333619278586E-02  2.913916548008E-01 -4.781597249039E-01
H16  4.333619278586E-02 -2.086083451992E-01 -2.184027509610E-02
C17  6.193501607773E-02  4.958211032925E-01  2.525736166391E-01
C18 -6.193501607773E-02 -4.178896707503E-03  2.474263833609E-01
C19 -6.193501607773E-02 -4.958211032925E-01 -2.525736166391E-01
C20  6.193501607773E-02  4.178896707503E-03 -2.474263833609E-01
H21  2.970927908184E-03  4.923720647715E-01  1.977732139629E-01
H22 -2.970927908184E-03 -7.627935228535E-03  3.022267860371E-01
H23 -2.970927908184E-03 -4.923720647715E-01 -1.977732139629E-01
H24  2.970927908184E-03  7.627935228535E-03 -3.022267860371E-01
C25  1.148190276670E-01  3.799113727269E-01  1.676868883160E-01
C26 -1.148190276670E-01 -1.200886272731E-01  3.323131116840E-01
C27 -1.148190276670E-01 -3.799113727269E-01 -1.676868883160E-01
C28  1.148190276670E-01  1.200886272731E-01 -3.323131116840E-01
H29  9.843094312512E-02  2.835107679722E-01  4.392072972752E-02
H30 -9.843094312512E-02 -2.164892320278E-01  4.560792702725E-01
H31 -9.843094312512E-02 -2.835107679722E-01 -4.392072972752E-02
H32  9.843094312512E-02  2.164892320278E-01 -4.560792702725E-01
C33  1.887633732440E-01  3.823555795860E-01  2.423120139033E-01
C34 -1.887633732440E-01 -1.176444204140E-01  2.576879860967E-01
C35 -1.887633732440E-01 -3.823555795860E-01 -2.423120139033E-01
C36  1.887633732440E-01  1.176444204140E-01 -2.576879860967E-01
H37  2.288157898947E-01  2.851829061691E-01  1.789644644956E-01
H38 -2.288157898947E-01 -2.148170938309E-01  3.210355355044E-01
H39 -2.288157898947E-01 -2.851829061691E-01 -1.789644644956E-01
H40  2.288157898947E-01  2.148170938309E-01 -3.210355355044E-01
C41  2.118302765785E-01 -4.978691045200E-01  4.013167558428E-01
C42 -2.118302765785E-01  2.130895479959E-03  9.868324415721E-02
C43 -2.118302765785E-01  4.978691045200E-01 -4.013167558428E-01
C44  2.118302765785E-01 -2.130895479959E-03 -9.868324415721E-02
C45  2.904223778721E-01 -4.934798427664E-01  4.810410790209E-01
C46 -2.904223778721E-01  6.520157233629E-03  1.895892097912E-02
C47 -2.904223778721E-01  4.934798427664E-01 -4.810410790209E-01
C48  2.904223778721E-01 -6.520157233629E-03 -1.895892097912E-02
C49  3.064630222775E-01 -4.338934987322E-01 -3.072072093472E-01
C50 -3.064630222775E-01  6.610650126784E-02 -1.927927906528E-01
C51 -3.064630222775E-01  4.338934987322E-01  3.072072093472E-01
C52  3.064630222775E-01 -6.610650126784E-02  1.927927906528E-01
H53  2.598058714141E-01 -4.044936912721E-01 -2.007017553297E-01
H54 -2.598058714141E-01  9.550630872786E-02 -2.992982446703E-01
H55 -2.598058714141E-01  4.044936912721E-01  2.007017553297E-01
H56  2.598058714141E-01 -9.550630872786E-02  2.992982446703E-01
C57  3.784452177592E-01 -4.149689273743E-01 -2.337928791545E-01
C58 -3.784452177592E-01  8.503107262572E-02 -2.662071208455E-01
C59 -3.784452177592E-01  4.149689273743E-01  2.337928791545E-01
C60  3.784452177592E-01 -8.503107262572E-02  2.662071208455E-01
H61  3.894023457829E-01 -3.663431808023E-01 -7.168281681056E-02
H62 -3.894023457829E-01  1.336568191977E-01 -4.283171831894E-01
H63 -3.894023457829E-01  3.663431808023E-01  7.168281681056E-02
H64  3.894023457829E-01 -1.336568191977E-01  4.283171831894E-01
C65  4.405418082419E-01 -4.563549456919E-01 -3.646294212547E-01
C66 -4.405418082419E-01  4.364505430814E-02 -1.353705787453E-01
C67 -4.405418082419E-01  4.563549456919E-01  3.646294212547E-01
C68  4.405418082419E-01 -4.364505430814E-02  1.353705787453E-01
C69  4.252268747771E-01  4.753137641189E-01  4.262036978578E-01
C70 -4.252268747771E-01 -2.468623588112E-02  7.379630214219E-02
C71 -4.252268747771E-01 -4.753137641189E-01 -4.262036978578E-01
C72  4.252268747771E-01  2.468623588112E-02 -7.379630214219E-02
C73  3.493435027602E-01  4.591079221874E-01  3.548292039794E-01
C74 -3.493435027602E-01 -4.089207781260E-02  1.451707960206E-01
C75 -3.493435027602E-01 -4.591079221874E-01 -3.548292039794E-01
C76  3.493435027602E-01  4.089207781259E-02 -1.451707960206E-01
H77  3.392336915558E-01  4.141775095664E-01  1.906741100822E-01
H78 -3.392336915558E-01 -8.582249043357E-02  3.093258899178E-01
H79 -3.392336915558E-01 -4.141775095664E-01 -1.906741100822E-01
H80  3.392336915558E-01  8.582249043357E-02 -3.093258899178E-01
C81 -4.853093661744E-01 -4.322917968998E-01 -2.957561610563E-01
C82  4.853093661744E-01  6.770820310019E-02 -2.042438389437E-01
C83  4.853093661744E-01  4.322917968998E-01  2.957561610563E-01
C84 -4.853093661744E-01 -6.770820310019E-02  2.042438389437E-01
H85 -4.740291379792E-01 -3.781079024142E-01 -1.359310195997E-01
H86  4.740291379791E-01  1.218920975858E-01 -3.640689804003E-01
H87  4.740291379792E-01  3.781079024142E-01  1.359310195997E-01
H88 -4.740291379791E-01 -1.218920975858E-01  3.640689804003E-01


#===END

data_OPT_STEP_46

_symmetry_space_group_name_H-M 'P 1'
_cell_length_a     18.00016626
_cell_length_b      7.54807097
_cell_length_c      6.39077966
_cell_angle_alpha   90.000000
_cell_angle_beta   90.935959
_cell_angle_gamma   90.000000

loop_
_atom_site_label
_atom_site_fract_x
_atom_site_fract_y
_atom_site_fract_z
C1  1.581978855400E-01 -3.801264215704E-01  4.827012596788E-01
C2 -1.581978855400E-01  1.198735784296E-01  1.729874032116E-02
C3 -1.581978855400E-01  3.801264215704E-01 -4.827012596788E-01
C4  1.581978855400E-01 -1.198735784296E-01 -1.729874032116E-02
H5  1.743891307325E-01 -2.803888201068E-01 -3.972659050796E-01
H6 -1.743891307325E-01  2.196111798932E-01 -1.027340949204E-01
H7 -1.743891307325E-01  2.803888201068E-01  3.972659050796E-01
H8  1.743891307325E-01 -2.196111798932E-01  1.027340949204E-01
C9  8.416374836256E-02 -3.842449059702E-01  4.099895062394E-01
C10 -8.416374836256E-02  1.157550940298E-01  9.001049376062E-02
C11 -8.416374836256E-02  3.842449059702E-01 -4.099895062394E-01
C12  8.416374836256E-02 -1.157550940298E-01 -9.001049376062E-02
H13  4.325363268447E-02 -2.915630379115E-01  4.781703420297E-01
H14 -4.325363268447E-02  2.084369620885E-01  2.182965797028E-02
H15 -4.325363268447E-02  2.915630379115E-01 -4.781703420297E-01
H16  4.325363268447E-02 -2.084369620885E-01 -2.182965797028E-02
C17  6.198751044289E-02  4.956985609162E-01  2.524774969509E-01
C18 -6.198751044289E-02 -4.301439083827E-03  2.475225030491E-01
C19 -6.198751044289E-02 -4.956985609162E-01 -2.524774969509E-01
C20  6.198751044289E-02  4.301439083826E-03 -2.475225030491E-01
H21  3.041878737770E-03  4.921069222570E-01  1.976957446911E-01
H22 -3.041878737770E-03 -7.893077743039E-03  3.023042553089E-01
H23 -3.041878737770E-03 -4.921069222570E-01 -1.976957446911E-01
H24  3.041878737770E-03  7.893077743039E-03 -3.023042553089E-01
C25  1.149387424198E-01  3.798725436217E-01  1.675030403635E-01
C26 -1.149387424198E-01 -1.201274563783E-01  3.324969596365E-01
C27 -1.149387424198E-01 -3.798725436217E-01 -1.675030403635E-01
C28  1.149387424198E-01  1.201274563783E-01 -3.324969596365E-01
H29  9.860749161493E-02  2.834367839617E-01  4.375668579080E-02
H30 -9.860749161493E-02 -2.165632160383E-01  4.562433142092E-01
H31 -9.860749161493E-02 -2.834367839617E-01 -4.375668579080E-02
H32  9.860749161493E-02  2.165632160383E-01 -4.562433142092E-01
C33  1.888655514140E-01  3.824043857326E-01  2.420601248270E-01
C34 -1.888655514140E-01 -1.175956142674E-01  2.579398751730E-01
C35 -1.888655514140E-01 -3.824043857326E-01 -2.420601248270E-01
C36  1.888655514140E-01  1.175956142674E-01 -2.579398751730E-01
H37  2.289743196374E-01  2.852678354901E-01  1.786346444262E-01
H38 -2.289743196374E-01 -2.147321645099E-01  3.213653555738E-01
H39 -2.289743196374E-01 -2.852678354901E-01 -1.786346444262E-01
H40  2.289743196374E-01  2.147321645099E-01 -3.213653555738E-01
C41  2.118509293730E-01 -4.978256210234E-01  4.010997202272E-01
C42 -2.118509293730E-01  2.174378976550E-03  9.890027977278E-02
C43 -2.118509293730E-01  4.978256210234E-01 -4.010997202272E-01
C44  2.118509293730E-01 -2.174378976551E-03 -9.890027977278E-02
C45  2.904238999033E-01 -4.934482021695E-01  4.807969139214E-01
C46 -2.904238999033E-01  6.551797830469E-03  1.920308607864E-02
C47 -2.904238999033E-01  4.934482021695E-01 -4.807969139214E-01
C48  2.904238999033E-01 -6.551797830469E-03 -1.920308607864E-02
C49  3.064055988055E-01 -4.340692144807E-01 -3.076399068753E-01
C50 -3.064055988055E-01  6.593078551933E-02 -1.923600931247E-01
C51 -3.064055988055E-01  4.340692144807E-01  3.076399068753E-01
C52  3.064055988055E-01 -6.593078551933E-02  1.923600931247E-01
H53  2.597180156570E-01 -4.047373334926E-01 -2.013175872093E-01
H54 -2.597180156570E-01  9.526266650742E-02 -2.986824127907E-01
H55 -2.597180156570E-01  4.047373334926E-01  2.013175872093E-01
H56  2.597180156570E-01 -9.526266650742E-02  2.986824127907E-01
C57  3.783681700076E-01 -4.152018512841E-01 -2.342163616159E-01
C58 -3.783681700075E-01  8.479814871593E-02 -2.657836383841E-01
C59 -3.783681700075E-01  4.152018512841E-01  2.342163616159E-01
C60  3.783681700075E-01 -8.479814871593E-02  2.657836383841E-01
H61  3.892758597948E-01 -3.667274717616E-01 -7.225492821058E-02
H62 -3.892758597948E-01  1.332725282384E-01 -4.277450717894E-01
H63 -3.892758597948E-01  3.667274717616E-01  7.225492821058E-02
H64  3.892758597948E-01 -1.332725282384E-01  4.277450717894E-01
C65  4.405037379440E-01 -4.564730560928E-01 -3.648374055719E-01
C66 -4.405037379440E-01  4.352694390723E-02 -1.351625944281E-01
C67 -4.405037379440E-01  4.564730560928E-01  3.648374055719E-01
C68  4.405037379440E-01 -4.352694390723E-02  1.351625944281E-01
C69  4.252475007003E-01  4.753860155565E-01  4.261664476586E-01
C70 -4.252475007003E-01 -2.461398444350E-02  7.383355234135E-02
C71 -4.252475007003E-01 -4.753860155565E-01 -4.261664476586E-01
C72  4.252475007003E-01  2.461398444350E-02 -7.383355234135E-02
C73  3.493850684237E-01  4.592656306556E-01  3.547703249728E-01
C74 -3.493850684237E-01 -4.073436934437E-02  1.452296750272E-01
C75 -3.493850684237E-01 -4.592656306556E-01 -3.547703249728E-01
C76  3.493850684237E-01  4.073436934437E-02 -1.452296750272E-01
H77  3.393281903573E-01  4.144873650530E-01  1.907770993034E-01
H78 -3.393281903573E-01 -8.551263494698E-02  3.092229006966E-01
H79 -3.393281903573E-01 -4.144873650530E-01 -1.907770993034E-01
H80  3.393281903573E-01  8.551263494698E-02 -3.092229006966E-01
C81 -4.853667912933E-01 -4.324764829171E-01 -2.959208739084E-01
C82  4.853667912933E-01  6.752351708294E-02 -2.040791260916E-01
C83  4.853667912933E-01  4.324764829171E-01  2.959208739084E-01
C84 -4.853667912933E-01 -6.752351708294E-02  2.040791260916E-01
H85 -4.741349700330E-01 -3.784434543183E-01 -1.362176675851E-01
H86  4.741349700330E-01  1.215565456817E-01 -3.637823324149E-01
H87  4.741349700330E-01  3.784434543183E-01  1.362176675851E-01
H88 -4.741349700330E-01 -1.215565456817E-01  3.637823324149E-01


#===END

data_OPT_STEP_47

_symmetry_space_group_name_H-M 'P 1'
_cell_length_a     18.00119141
_cell_length_b      7.54350843
_cell_length_c      6.39463281
_cell_angle_alpha   90.000000
_cell_angle_beta   90.927405
_cell_angle_gamma   90.000000

loop_
_atom_site_label
_atom_site_fract_x
_atom_site_fract_y
_atom_site_fract_z
C1  1.582158765782E-01 -3.801398195683E-01  4.825810583240E-01
C2 -1.582158765782E-01  1.198601804317E-01  1.741894167596E-02
C3 -1.582158765782E-01  3.801398195683E-01 -4.825810583240E-01
C4  1.582158765782E-01 -1.198601804317E-01 -1.741894167596E-02
H5  1.743853904651E-01 -2.804255507166E-01 -3.973532973122E-01
H6 -1.743853904651E-01  2.195744492834E-01 -1.026467026878E-01
H7 -1.743853904651E-01  2.804255507166E-01  3.973532973122E-01
H8  1.743853904651E-01 -2.195744492834E-01  1.026467026878E-01
C9  8.418387978895E-02 -3.842730063059E-01  4.099145862112E-01
C10 -8.418387978895E-02  1.157269936941E-01  9.008541378884E-02
C11 -8.418387978895E-02  3.842730063059E-01 -4.099145862112E-01
C12  8.418387978895E-02 -1.157269936941E-01 -9.008541378884E-02
H13  4.326227453625E-02 -2.916211864204E-01  4.781717294196E-01
H14 -4.326227453625E-02  2.083788135796E-01  2.182827058036E-02
H15 -4.326227453625E-02  2.916211864204E-01 -4.781717294196E-01
H16  4.326227453625E-02 -2.083788135796E-01 -2.182827058036E-02
C17  6.203276450941E-02  4.956659806740E-01  2.524049023332E-01
C18 -6.203276450941E-02 -4.334019325978E-03  2.475950976668E-01
C19 -6.203276450941E-02 -4.956659806740E-01 -2.524049023332E-01
C20  6.203276450941E-02  4.334019325978E-03 -2.475950976668E-01
H21  3.091601151871E-03  4.920240893648E-01  1.976403204432E-01
H22 -3.091601151871E-03 -7.975910635165E-03  3.023596795568E-01
H23 -3.091601151871E-03 -4.920240893648E-01 -1.976403204432E-01
H24  3.091601151871E-03  7.975910635164E-03 -3.023596795568E-01
C25  1.150048774078E-01  3.798995341526E-01  1.673405896811E-01
C26 -1.150048774078E-01 -1.201004658474E-01  3.326594103189E-01
C27 -1.150048774078E-01 -3.798995341526E-01 -1.673405896811E-01
C28  1.150048774078E-01  1.201004658474E-01 -3.326594103189E-01
H29  9.868658171914E-02  2.834469011485E-01  4.363425812053E-02
H30 -9.868658171914E-02 -2.165530988515E-01  4.563657418795E-01
H31 -9.868658171914E-02 -2.834469011485E-01 -4.363425812053E-02
H32  9.868658171914E-02  2.165530988515E-01 -4.563657418795E-01
C33  1.889265715979E-01  3.824487869968E-01  2.418456332352E-01
C34 -1.889265715979E-01 -1.175512130032E-01  2.581543667648E-01
C35 -1.889265715979E-01 -3.824487869968E-01 -2.418456332352E-01
C36  1.889265715979E-01  1.175512130032E-01 -2.581543667648E-01
H37  2.290480587714E-01  2.853228385476E-01  1.783704202769E-01
H38 -2.290480587714E-01 -2.146771614524E-01  3.216295797231E-01
H39 -2.290480587714E-01 -2.853228385476E-01 -1.783704202769E-01
H40  2.290480587714E-01  2.146771614524E-01 -3.216295797231E-01
C41  2.118852494460E-01 -4.978253299377E-01  4.009242188966E-01
C42 -2.118852494460E-01  2.174670062329E-03  9.907578110336E-02
C43 -2.118852494460E-01  4.978253299377E-01 -4.009242188966E-01
C44  2.118852494460E-01 -2.174670062329E-03 -9.907578110336E-02
C45  2.904447316331E-01 -4.934543338022E-01  4.806087544146E-01
C46 -2.904447316331E-01  6.545666197775E-03  1.939124558541E-02
C47 -2.904447316331E-01  4.934543338022E-01 -4.806087544146E-01
C48  2.904447316331E-01 -6.545666197775E-03 -1.939124558541E-02
C49  3.063869916258E-01 -4.341674028394E-01 -3.078960169141E-01
C50 -3.063869916258E-01  6.583259716061E-02 -1.921039830859E-01
C51 -3.063869916258E-01  4.341674028394E-01  3.078960169141E-01
C52  3.063869916258E-01 -6.583259716061E-02  1.921039830859E-01
H53  2.596856331336E-01 -4.049018106752E-01 -2.016518506293E-01
H54 -2.596856331336E-01  9.509818932478E-02 -2.983481493707E-01
H55 -2.596856331336E-01  4.049018106752E-01  2.016518506293E-01
H56  2.596856331336E-01 -9.509818932478E-02  2.983481493707E-01
C57  3.783308034206E-01 -4.152795083421E-01 -2.344514713114E-01
C58 -3.783308034206E-01  8.472049165794E-02 -2.655485286886E-01
C59 -3.783308034206E-01  4.152795083421E-01  2.344514713114E-01
C60  3.783308034206E-01 -8.472049165795E-02  2.655485286886E-01
H61  3.892104422419E-01 -3.668873730897E-01 -7.252710861975E-02
H62 -3.892104422419E-01  1.331126269103E-01 -4.274728913803E-01
H63 -3.892104422419E-01  3.668873730897E-01  7.252710861975E-02
H64  3.892104422419E-01 -1.331126269103E-01  4.274728913803E-01
C65  4.404859685596E-01 -4.565063757311E-01 -3.649535040331E-01
C66 -4.404859685596E-01  4.349362426887E-02 -1.350464959669E-01
C67 -4.404859685596E-01  4.565063757311E-01  3.649535040331E-01
C68  4.404859685596E-01 -4.349362426887E-02  1.350464959669E-01
C69  4.252676088554E-01  4.754227063934E-01  4.261129482439E-01
C70 -4.252676088554E-01 -2.457729360656E-02  7.388705175606E-02
C71 -4.252676088554E-01 -4.754227063934E-01 -4.261129482439E-01
C72  4.252676088554E-01  2.457729360656E-02 -7.388705175606E-02
C73  3.494250838482E-01  4.593279075261E-01  3.546756921172E-01
C74 -3.494250838482E-01 -4.067209247391E-02  1.453243078828E-01
C75 -3.494250838482E-01 -4.593279075261E-01 -3.546756921172E-01
C76  3.494250838482E-01  4.067209247391E-02 -1.453243078828E-01
H77  3.393938523441E-01  4.146325410821E-01  1.907345055586E-01
H78 -3.393938523441E-01 -8.536745891785E-02  3.092654944414E-01
H79 -3.393938523441E-01 -4.146325410821E-01 -1.907345055586E-01
H80  3.393938523441E-01  8.536745891785E-02 -3.092654944414E-01
C81 -4.854039773218E-01 -4.325334633013E-01 -2.959884478411E-01
C82  4.854039773218E-01  6.746653669874E-02 -2.040115521589E-01
C83  4.854039773218E-01  4.325334633013E-01  2.959884478411E-01
C84 -4.854039773218E-01 -6.746653669874E-02  2.040115521589E-01
H85 -4.741964510456E-01 -3.785593614048E-01 -1.363336509984E-01
H86  4.741964510456E-01  1.214406385952E-01 -3.636663490016E-01
H87  4.741964510456E-01  3.785593614048E-01  1.363336509984E-01
H88 -4.741964510456E-01 -1.214406385952E-01  3.636663490016E-01


#===END

data_OPT_STEP_48

_symmetry_space_group_name_H-M 'P 1'
_cell_length_a     18.00132374
_cell_length_b      7.54442441
_cell_length_c      6.39377878
_cell_angle_alpha   90.000000
_cell_angle_beta   90.922962
_cell_angle_gamma   90.000000

loop_
_atom_site_label
_atom_site_fract_x
_atom_site_fract_y
_atom_site_fract_z
C1  1.582139995532E-01 -3.801382393958E-01  4.826194463302E-01
C2 -1.582139995532E-01  1.198617606042E-01  1.738055366980E-02
C3 -1.582139995532E-01  3.801382393958E-01 -4.826194463302E-01
C4  1.582139995532E-01 -1.198617606042E-01 -1.738055366980E-02
H5  1.743821499322E-01 -2.804360702501E-01 -3.973058452556E-01
H6 -1.743821499322E-01  2.195639297499E-01 -1.026941547444E-01
H7 -1.743821499322E-01  2.804360702501E-01  3.973058452556E-01
H8  1.743821499322E-01 -2.195639297499E-01  1.026941547444E-01
C9  8.418775805374E-02 -3.842565722243E-01  4.099358219448E-01
C10 -8.418775805374E-02  1.157434277757E-01  9.006417805522E-02
C11 -8.418775805374E-02  3.842565722243E-01 -4.099358219448E-01
C12  8.418775805374E-02 -1.157434277757E-01 -9.006417805522E-02
H13  4.327196479807E-02 -2.916001501792E-01  4.781921932945E-01
H14 -4.327196479807E-02  2.083998498208E-01  2.180780670555E-02
H15 -4.327196479807E-02  2.916001501792E-01 -4.781921932945E-01
H16  4.327196479807E-02 -2.083998498208E-01 -2.180780670555E-02
C17  6.203761240246E-02  4.956759211897E-01  2.524351894759E-01
C18 -6.203761240246E-02 -4.324078810257E-03  2.475648105241E-01
C19 -6.203761240246E-02 -4.956759211897E-01 -2.524351894759E-01
C20  6.203761240246E-02  4.324078810257E-03 -2.475648105241E-01
H21  3.097296098643E-03  4.920426071631E-01  1.976567476565E-01
H22 -3.097296098643E-03 -7.957392836932E-03  3.023432523435E-01
H23 -3.097296098643E-03 -4.920426071631E-01 -1.976567476565E-01
H24  3.097296098643E-03  7.957392836932E-03 -3.023432523435E-01
C25  1.150052543591E-01  3.799090124121E-01  1.673707211242E-01
C26 -1.150052543591E-01 -1.200909875879E-01  3.326292788758E-01
C27 -1.150052543591E-01 -3.799090124121E-01 -1.673707211242E-01
C28  1.150052543591E-01  1.200909875879E-01 -3.326292788758E-01
H29  9.868423054698E-02  2.834501865421E-01  4.368809231006E-02
H30 -9.868423054698E-02 -2.165498134579E-01  4.563119076899E-01
H31 -9.868423054698E-02 -2.834501865421E-01 -4.368809231006E-02
H32  9.868423054698E-02  2.165498134579E-01 -4.563119076899E-01
C33  1.889241042793E-01  3.824601947861E-01  2.418774069396E-01
C34 -1.889241042793E-01 -1.175398052139E-01  2.581225930604E-01
C35 -1.889241042793E-01 -3.824601947861E-01 -2.418774069396E-01
C36  1.889241042793E-01  1.175398052139E-01 -2.581225930604E-01
H37  2.290458570441E-01  2.853454439504E-01  1.783832396466E-01
H38 -2.290458570441E-01 -2.146545560496E-01  3.216167603534E-01
H39 -2.290458570441E-01 -2.853454439504E-01 -1.783832396466E-01
H40  2.290458570441E-01  2.146545560496E-01 -3.216167603534E-01
C41  2.118800224786E-01 -4.978284466408E-01  4.009708875216E-01
C42 -2.118800224786E-01  2.171553359201E-03  9.902911247841E-02
C43 -2.118800224786E-01  4.978284466408E-01 -4.009708875216E-01
C44  2.118800224786E-01 -2.171553359201E-03 -9.902911247841E-02
C45  2.904376444898E-01 -4.934590567519E-01  4.806570395614E-01
C46 -2.904376444898E-01  6.540943248116E-03  1.934296043863E-02
C47 -2.904376444898E-01  4.934590567519E-01 -4.806570395614E-01
C48  2.904376444898E-01 -6.540943248116E-03 -1.934296043863E-02
C49  3.063796663946E-01 -4.341695818919E-01 -3.078231149760E-01
C50 -3.063796663946E-01  6.583041810812E-02 -1.921768850240E-01
C51 -3.063796663946E-01  4.341695818919E-01  3.078231149760E-01
C52  3.063796663946E-01 -6.583041810812E-02  1.921768850240E-01
H53  2.596814585468E-01 -4.049072894095E-01 -2.015530442885E-01
H54 -2.596814585468E-01  9.509271059054E-02 -2.984469557115E-01
H55 -2.596814585468E-01  4.049072894095E-01  2.015530442885E-01
H56  2.596814585468E-01 -9.509271059054E-02  2.984469557115E-01
C57  3.783250478242E-01 -4.152656234282E-01 -2.343941268718E-01
C58 -3.783250478242E-01  8.473437657178E-02 -2.656058731282E-01
C59 -3.783250478242E-01  4.152656234282E-01  2.343941268718E-01
C60  3.783250478242E-01 -8.473437657178E-02  2.656058731282E-01
H61  3.892053483603E-01 -3.668863029598E-01 -7.244378805021E-02
H62 -3.892053483603E-01  1.331136970402E-01 -4.275562119498E-01
H63 -3.892053483603E-01  3.668863029598E-01  7.244378805021E-02
H64  3.892053483603E-01 -1.331136970402E-01  4.275562119498E-01
C65  4.404829039456E-01 -4.565022879802E-01 -3.649225409866E-01
C66 -4.404829039456E-01  4.349771201983E-02 -1.350774590134E-01
C67 -4.404829039456E-01  4.565022879802E-01  3.649225409866E-01
C68  4.404829039456E-01 -4.349771201983E-02  1.350774590134E-01
C69  4.252653483241E-01  4.754233070164E-01  4.261258055804E-01
C70 -4.252653483241E-01 -2.457669298360E-02  7.387419441960E-02
C71 -4.252653483241E-01 -4.754233070164E-01 -4.261258055804E-01
C72  4.252653483241E-01  2.457669298360E-02 -7.387419441960E-02
C73  3.494214484987E-01  4.593258773153E-01  3.546982898786E-01
C74 -3.494214484987E-01 -4.067412268466E-02  1.453017101214E-01
C75 -3.494214484987E-01 -4.593258773153E-01 -3.546982898786E-01
C76  3.494214484987E-01  4.067412268466E-02 -1.453017101214E-01
H77  3.393900918035E-01  4.146276658459E-01  1.907413724630E-01
H78 -3.393900918035E-01 -8.537233415410E-02  3.092586275370E-01
H79 -3.393900918035E-01 -4.146276658459E-01 -1.907413724630E-01
H80  3.393900918035E-01  8.537233415410E-02 -3.092586275370E-01
C81 -4.854045513983E-01 -4.325301136949E-01 -2.959720164056E-01
C82  4.854045513983E-01  6.746988630506E-02 -2.040279835944E-01
C83  4.854045513983E-01  4.325301136949E-01  2.959720164056E-01
C84 -4.854045513983E-01 -6.746988630506E-02  2.040279835944E-01
H85 -4.741946520464E-01 -3.785544758844E-01 -1.363018856821E-01
H86  4.741946520464E-01  1.214455241156E-01 -3.636981143179E-01
H87  4.741946520464E-01  3.785544758844E-01  1.363018856821E-01
H88 -4.741946520464E-01 -1.214455241156E-01  3.636981143179E-01


#===END

data_OPT_STEP_49

_symmetry_space_group_name_H-M 'P 1'
_cell_length_a     18.00153518
_cell_length_b      7.54562758
_cell_length_c      6.39262959
_cell_angle_alpha   90.000000
_cell_angle_beta   90.924499
_cell_angle_gamma   90.000000

loop_
_atom_site_label
_atom_site_fract_x
_atom_site_fract_y
_atom_site_fract_z
C1  1.582197669334E-01 -3.801377830630E-01  4.826504053287E-01
C2 -1.582197669334E-01  1.198622169370E-01  1.734959467127E-02
C3 -1.582197669334E-01  3.801377830630E-01 -4.826504053287E-01
C4  1.582197669334E-01 -1.198622169370E-01 -1.734959467127E-02
H5  1.743939536655E-01 -2.804398786179E-01 -3.972720687298E-01
H6 -1.743939536655E-01  2.195601213821E-01 -1.027279312702E-01
H7 -1.743939536655E-01  2.804398786179E-01  3.972720687298E-01
H8  1.743939536655E-01 -2.195601213821E-01  1.027279312702E-01
C9  8.419290931576E-02 -3.842491002152E-01  4.099632357792E-01
C10 -8.419290931576E-02  1.157508997848E-01  9.003676422075E-02
C11 -8.419290931576E-02  3.842491002152E-01 -4.099632357792E-01
C12  8.419290931576E-02 -1.157508997848E-01 -9.003676422075E-02
H13  4.328332269332E-02 -2.915920351401E-01  4.782242231529E-01
H14 -4.328332269332E-02  2.084079648599E-01  2.177577684709E-02
H15 -4.328332269332E-02  2.915920351401E-01 -4.782242231529E-01
H16  4.328332269332E-02 -2.084079648599E-01 -2.177577684709E-02
C17  6.203606775214E-02  4.956872578785E-01  2.524575803972E-01
C18 -6.203606775214E-02 -4.312742121544E-03  2.475424196028E-01
C19 -6.203606775214E-02 -4.956872578785E-01 -2.524575803972E-01
C20  6.203606775214E-02  4.312742121543E-03 -2.475424196028E-01
H21  3.094679891773E-03  4.920614690459E-01  1.976760894567E-01
H22 -3.094679891773E-03 -7.938530954072E-03  3.023239105433E-01
H23 -3.094679891773E-03 -4.920614690459E-01 -1.976760894567E-01
H24  3.094679891773E-03  7.938530954072E-03 -3.023239105433E-01
C25  1.149968340979E-01  3.799171589750E-01  1.673905383765E-01
C26 -1.149968340979E-01 -1.200828410250E-01  3.326094616235E-01
C27 -1.149968340979E-01 -3.799171589750E-01 -1.673905383765E-01
C28  1.149968340979E-01  1.200828410250E-01 -3.326094616235E-01
H29  9.866998770772E-02  2.834633918902E-01  4.370553281257E-02
H30 -9.866998770772E-02 -2.165366081098E-01  4.562944671874E-01
H31 -9.866998770772E-02 -2.834633918902E-01 -4.370553281257E-02
H32  9.866998770772E-02  2.165366081098E-01 -4.562944671874E-01
C33  1.889168977867E-01  3.824644444854E-01  2.418993066033E-01
C34 -1.889168977867E-01 -1.175355555146E-01  2.581006933967E-01
C35 -1.889168977867E-01 -3.824644444854E-01 -2.418993066033E-01
C36  1.889168977867E-01  1.175355555146E-01 -2.581006933967E-01
H37  2.290338644651E-01  2.853515628802E-01  1.784004241314E-01
H38 -2.290338644651E-01 -2.146484371198E-01  3.215995758686E-01
H39 -2.290338644651E-01 -2.853515628802E-01 -1.784004241314E-01
H40  2.290338644651E-01  2.146484371198E-01 -3.215995758686E-01
C41  2.118799071312E-01 -4.978257190844E-01  4.009979124775E-01
C42 -2.118799071312E-01  2.174280915628E-03  9.900208752247E-02
C43 -2.118799071312E-01  4.978257190844E-01 -4.009979124775E-01
C44  2.118799071312E-01 -2.174280915629E-03 -9.900208752247E-02
C45  2.904389500260E-01 -4.934558460545E-01  4.806870565708E-01
C46 -2.904389500260E-01  6.544153945489E-03  1.931294342916E-02
C47 -2.904389500260E-01  4.934558460545E-01 -4.806870565708E-01
C48  2.904389500260E-01 -6.544153945489E-03 -1.931294342916E-02
C49  3.063879656220E-01 -4.341509889191E-01 -3.077648768182E-01
C50 -3.063879656220E-01  6.584901108093E-02 -1.922351231818E-01
C51 -3.063879656220E-01  4.341509889191E-01  3.077648768182E-01
C52  3.063879656220E-01 -6.584901108093E-02  1.922351231818E-01
H53  2.596954271044E-01 -4.048851270821E-01 -2.014685889687E-01
H54 -2.596954271044E-01  9.511487291788E-02 -2.985314110313E-01
H55 -2.596954271044E-01  4.048851270821E-01  2.014685889687E-01
H56  2.596954271044E-01 -9.511487291788E-02  2.985314110313E-01
C57  3.783349540316E-01 -4.152434683034E-01 -2.343370256875E-01
C58 -3.783349540316E-01  8.475653169660E-02 -2.656629743125E-01
C59 -3.783349540316E-01  4.152434683034E-01  2.343370256875E-01
C60  3.783349540316E-01 -8.475653169660E-02  2.656629743125E-01
H61  3.892209636693E-01 -3.668606211684E-01 -7.236193849443E-02
H62 -3.892209636693E-01  1.331393788316E-01 -4.276380615056E-01
H63 -3.892209636693E-01  3.668606211684E-01  7.236193849443E-02
H64  3.892209636693E-01 -1.331393788316E-01  4.276380615056E-01
C65  4.404878779884E-01 -4.564910651257E-01 -3.648941751387E-01
C66 -4.404878779884E-01  4.350893487428E-02 -1.351058248613E-01
C67 -4.404878779884E-01  4.564910651257E-01  3.648941751387E-01
C68  4.404878779884E-01 -4.350893487428E-02  1.351058248613E-01
C69  4.252639269411E-01  4.754203463920E-01  4.261299689437E-01
C70 -4.252639269411E-01 -2.457965360800E-02  7.387003105630E-02
C71 -4.252639269411E-01 -4.754203463920E-01 -4.261299689437E-01
C72  4.252639269411E-01  2.457965360800E-02 -7.387003105630E-02
C73  3.494186363849E-01  4.593182265173E-01  3.547037387581E-01
C74 -3.494186363849E-01 -4.068177348270E-02  1.452962612419E-01
C75 -3.494186363849E-01 -4.593182265173E-01 -3.547037387581E-01
C76  3.494186363849E-01  4.068177348270E-02 -1.452962612419E-01
H77  3.393827036904E-01  4.146083833513E-01  1.907247581980E-01
H78 -3.393827036904E-01 -8.539161664870E-02  3.092752418020E-01
H79 -3.393827036904E-01 -4.146083833513E-01 -1.907247581980E-01
H80  3.393827036904E-01  8.539161664870E-02 -3.092752418020E-01
C81 -4.853981199120E-01 -4.325167885202E-01 -2.959481586926E-01
C82  4.853981199120E-01  6.748321147981E-02 -2.040518413074E-01
C83  4.853981199120E-01  4.325167885202E-01  2.959481586926E-01
C84 -4.853981199120E-01 -6.748321147981E-02  2.040518413074E-01
H85 -4.741819880237E-01 -3.785295559946E-01 -1.362605625105E-01
H86  4.741819880237E-01  1.214704440054E-01 -3.637394374895E-01
H87  4.741819880237E-01  3.785295559946E-01  1.362605625105E-01
H88 -4.741819880237E-01 -1.214704440054E-01  3.637394374895E-01


#===END

data_OPT_STEP_50

_symmetry_space_group_name_H-M 'P 1'
_cell_length_a     18.00162830
_cell_length_b      7.54590687
_cell_length_c      6.39233924
_cell_angle_alpha   90.000000
_cell_angle_beta   90.923940
_cell_angle_gamma   90.000000

loop_
_atom_site_label
_atom_site_fract_x
_atom_site_fract_y
_atom_site_fract_z
C1  1.582223983446E-01 -3.801389984806E-01  4.826598093793E-01
C2 -1.582223983446E-01  1.198610015194E-01  1.734019062069E-02
C3 -1.582223983446E-01  3.801389984806E-01 -4.826598093793E-01
C4  1.582223983446E-01 -1.198610015194E-01 -1.734019062069E-02
H5  1.743974393822E-01 -2.804432223925E-01 -3.972601872957E-01
H6 -1.743974393822E-01  2.195567776075E-01 -1.027398127043E-01
H7 -1.743974393822E-01  2.804432223925E-01  3.972601872957E-01
H8  1.743974393822E-01 -2.195567776075E-01  1.027398127043E-01
C9  8.419563118749E-02 -3.842493313149E-01  4.099737759250E-01
C10 -8.419563118749E-02  1.157506686851E-01  9.002622407498E-02
C11 -8.419563118749E-02  3.842493313149E-01 -4.099737759250E-01
C12  8.419563118749E-02 -1.157506686851E-01 -9.002622407498E-02
H13  4.328706790689E-02 -2.915945537662E-01  4.782404740462E-01
H14 -4.328706790689E-02  2.084054462338E-01  2.175952595379E-02
H15 -4.328706790689E-02  2.915945537662E-01 -4.782404740462E-01
H16  4.328706790689E-02 -2.084054462338E-01 -2.175952595379E-02
C17  6.203813293261E-02  4.956896957959E-01  2.524643670325E-01
C18 -6.203813293261E-02 -4.310304204116E-03  2.475356329675E-01
C19 -6.203813293261E-02 -4.956896957959E-01 -2.524643670325E-01
C20  6.203813293261E-02  4.310304204116E-03 -2.475356329675E-01
H21  3.096850862903E-03  4.920635600718E-01  1.976837765849E-01
H22 -3.096850862903E-03 -7.936439928245E-03  3.023162234151E-01
H23 -3.096850862903E-03 -4.920635600718E-01 -1.976837765849E-01
H24  3.096850862903E-03  7.936439928245E-03 -3.023162234151E-01
C25  1.149979512280E-01  3.799207237237E-01  1.673934054607E-01
C26 -1.149979512280E-01 -1.200792762763E-01  3.326065945393E-01
C27 -1.149979512280E-01 -3.799207237237E-01 -1.673934054607E-01
C28  1.149979512280E-01  1.200792762763E-01 -3.326065945393E-01
H29  9.867033132159E-02  2.834700739211E-01  4.370529695815E-02
H30 -9.867033132159E-02 -2.165299260789E-01  4.562947030418E-01
H31 -9.867033132159E-02 -2.834700739211E-01 -4.370529695815E-02
H32  9.867033132159E-02  2.165299260789E-01 -4.562947030418E-01
C33  1.889177778477E-01  3.824670288932E-01  2.419017101584E-01
C34 -1.889177778477E-01 -1.175329711068E-01  2.580982898416E-01
C35 -1.889177778477E-01 -3.824670288932E-01 -2.419017101584E-01
C36  1.889177778477E-01  1.175329711068E-01 -2.580982898416E-01
H37  2.290340065051E-01  2.853556682819E-01  1.783996917497E-01
H38 -2.290340065051E-01 -2.146443317181E-01  3.216003082503E-01
H39 -2.290340065051E-01 -2.853556682819E-01 -1.783996917497E-01
H40  2.290340065051E-01  2.146443317181E-01 -3.216003082503E-01
C41  2.118814785745E-01 -4.978245904859E-01  4.010032349146E-01
C42 -2.118814785745E-01  2.175409514109E-03  9.899676508543E-02
C43 -2.118814785745E-01  4.978245904859E-01 -4.010032349146E-01
C44  2.118814785745E-01 -2.175409514109E-03 -9.899676508543E-02
C45  2.904399671134E-01 -4.934549167243E-01  4.806930142852E-01
C46 -2.904399671134E-01  6.545083275704E-03  1.930698571482E-02
C47 -2.904399671134E-01  4.934549167243E-01 -4.806930142852E-01
C48  2.904399671134E-01 -6.545083275704E-03 -1.930698571482E-02
C49  3.063890425492E-01 -4.341484048397E-01 -3.077515849905E-01
C50 -3.063890425492E-01  6.585159516034E-02 -1.922484150095E-01
C51 -3.063890425492E-01  4.341484048397E-01  3.077515849905E-01
C52  3.063890425492E-01 -6.585159516034E-02  1.922484150095E-01
H53  2.596972927581E-01 -4.048829072905E-01 -2.014487613003E-01
H54 -2.596972927581E-01  9.511709270952E-02 -2.985512386997E-01
H55 -2.596972927581E-01  4.048829072905E-01  2.014487613003E-01
H56  2.596972927581E-01 -9.511709270952E-02  2.985512386997E-01
C57  3.783356792561E-01 -4.152409243667E-01 -2.343229554896E-01
C58 -3.783356792561E-01  8.475907563331E-02 -2.656770445104E-01
C59 -3.783356792561E-01  4.152409243667E-01  2.343229554896E-01
C60  3.783356792561E-01 -8.475907563331E-02  2.656770445104E-01
H61  3.892218372296E-01 -3.668581044248E-01 -7.234091778120E-02
H62 -3.892218372296E-01  1.331418955752E-01 -4.276590822188E-01
H63 -3.892218372296E-01  3.668581044248E-01  7.234091778120E-02
H64  3.892218372296E-01 -1.331418955752E-01  4.276590822188E-01
C65  4.404882477584E-01 -4.564891966432E-01 -3.648872327799E-01
C66 -4.404882477584E-01  4.351080335683E-02 -1.351127672201E-01
C67 -4.404882477584E-01  4.564891966432E-01  3.648872327799E-01
C68  4.404882477584E-01 -4.351080335683E-02  1.351127672201E-01
C69  4.252641621379E-01  4.754200629896E-01  4.261303366474E-01
C70 -4.252641621379E-01 -2.457993701041E-02  7.386966335260E-02
C71 -4.252641621379E-01 -4.754200629896E-01 -4.261303366474E-01
C72  4.252641621379E-01  2.457993701041E-02 -7.386966335260E-02
C73  3.494191329245E-01  4.593176878596E-01  3.547037328617E-01
C74 -3.494191329245E-01 -4.068231214036E-02  1.452962671383E-01
C75 -3.494191329245E-01 -4.593176878596E-01 -3.547037328617E-01
C76  3.494191329245E-01  4.068231214036E-02 -1.452962671383E-01
H77  3.393832328138E-01  4.146060008272E-01  1.907184752007E-01
H78 -3.393832328138E-01 -8.539399917276E-02  3.092815247993E-01
H79 -3.393832328138E-01 -4.146060008272E-01 -1.907184752007E-01
H80  3.393832328138E-01  8.539399917276E-02 -3.092815247993E-01
C81 -4.853979180664E-01 -4.325146453368E-01 -2.959416237870E-01
C82  4.853979180664E-01  6.748535466323E-02 -2.040583762130E-01
C83  4.853979180664E-01  4.325146453368E-01  2.959416237870E-01
C84 -4.853979180664E-01 -6.748535466323E-02  2.040583762130E-01
H85 -4.741812881079E-01 -3.785249813559E-01 -1.362489753923E-01
H86  4.741812881079E-01  1.214750186441E-01 -3.637510246077E-01
H87  4.741812881079E-01  3.785249813559E-01  1.362489753923E-01
H88 -4.741812881079E-01 -1.214750186441E-01  3.637510246077E-01


#===END

data_OPT_STEP_51

_symmetry_space_group_name_H-M 'P 1'
_cell_length_a     18.00166591
_cell_length_b      7.54592789
_cell_length_c      6.39229534
_cell_angle_alpha   90.000000
_cell_angle_beta   90.923711
_cell_angle_gamma   90.000000

loop_
_atom_site_label
_atom_site_fract_x
_atom_site_fract_y
_atom_site_fract_z
C1  1.582231432595E-01 -3.801400065483E-01  4.826634146165E-01
C2 -1.582231432595E-01  1.198599934517E-01  1.733658538346E-02
C3 -1.582231432595E-01  3.801400065483E-01 -4.826634146165E-01
C4  1.582231432595E-01 -1.198599934517E-01 -1.733658538346E-02
H5  1.743981571113E-01 -2.804452863633E-01 -3.972548023055E-01
H6 -1.743981571113E-01  2.195547136367E-01 -1.027451976945E-01
H7 -1.743981571113E-01  2.804452863633E-01  3.972548023055E-01
H8  1.743981571113E-01 -2.195547136367E-01  1.027451976945E-01
C9  8.419639405177E-02 -3.842503896013E-01  4.099784689409E-01
C10 -8.419639405177E-02  1.157496103987E-01  9.002153105912E-02
C11 -8.419639405177E-02  3.842503896013E-01 -4.099784689409E-01
C12  8.419639405177E-02 -1.157496103987E-01 -9.002153105912E-02
H13  4.328782713436E-02 -2.915977308752E-01  4.782493899014E-01
H14 -4.328782713436E-02  2.084022691248E-01  2.175061009859E-02
H15 -4.328782713436E-02  2.915977308752E-01 -4.782493899014E-01
H16  4.328782713436E-02 -2.084022691248E-01 -2.175061009859E-02
C17  6.203908812511E-02  4.956905010364E-01  2.524663759090E-01
C18 -6.203908812511E-02 -4.309498963643E-03  2.475336240910E-01
C19 -6.203908812511E-02 -4.956905010364E-01 -2.524663759090E-01
C20  6.203908812511E-02  4.309498963643E-03 -2.475336240910E-01
H21  3.097948394513E-03  4.920639059971E-01  1.976864246519E-01
H22 -3.097948394513E-03 -7.936094002911E-03  3.023135753481E-01
H23 -3.097948394513E-03 -4.920639059971E-01 -1.976864246519E-01
H24  3.097948394513E-03  7.936094002911E-03 -3.023135753481E-01
C25  1.149989944715E-01  3.799229225302E-01  1.673924883771E-01
C26 -1.149989944715E-01 -1.200770774698E-01  3.326075116229E-01
C27 -1.149989944715E-01 -3.799229225302E-01 -1.673924883771E-01
C28  1.149989944715E-01  1.200770774698E-01 -3.326075116229E-01
H29  9.867148248698E-02  2.834740541237E-01  4.370194362166E-02
H30 -9.867148248698E-02 -2.165259458763E-01  4.562980563783E-01
H31 -9.867148248698E-02 -2.834740541237E-01 -4.370194362166E-02
H32  9.867148248698E-02  2.165259458763E-01 -4.562980563783E-01
C33  1.889186961381E-01  3.824689260444E-01  2.419002269041E-01
C34 -1.889186961381E-01 -1.175310739556E-01  2.580997730959E-01
C35 -1.889186961381E-01 -3.824689260444E-01 -2.419002269041E-01
C36  1.889186961381E-01  1.175310739556E-01 -2.580997730959E-01
H37  2.290349616257E-01  2.853585072173E-01  1.783958813317E-01
H38 -2.290349616257E-01 -2.146414927827E-01  3.216041186683E-01
H39 -2.290349616257E-01 -2.853585072173E-01 -1.783958813317E-01
H40  2.290349616257E-01  2.146414927827E-01 -3.216041186683E-01
C41  2.118822954824E-01 -4.978238288179E-01  4.010037358322E-01
C42 -2.118822954824E-01  2.176171182055E-03  9.899626416781E-02
C43 -2.118822954824E-01  4.978238288179E-01 -4.010037358322E-01
C44  2.118822954824E-01 -2.176171182055E-03 -9.899626416781E-02
C45  2.904405927800E-01 -4.934543685099E-01  4.806935712020E-01
C46 -2.904405927800E-01  6.545631490069E-03  1.930642879802E-02
C47 -2.904405927800E-01  4.934543685099E-01 -4.806935712020E-01
C48  2.904405927800E-01 -6.545631490070E-03 -1.930642879802E-02
C49  3.063894197938E-01 -4.341490799988E-01 -3.077493578618E-01
C50 -3.063894197938E-01  6.585092000116E-02 -1.922506421382E-01
C51 -3.063894197938E-01  4.341490799988E-01  3.077493578618E-01
C52  3.063894197938E-01 -6.585092000116E-02  1.922506421382E-01
H53  2.596977605471E-01 -4.048844277927E-01 -2.014452376089E-01
H54 -2.596977605471E-01  9.511557220730E-02 -2.985547623911E-01
H55 -2.596977605471E-01  4.048844277927E-01  2.014452376089E-01
H56  2.596977605471E-01 -9.511557220730E-02  2.985547623911E-01
C57  3.783357944450E-01 -4.152422262324E-01 -2.343201115226E-01
C58 -3.783357944450E-01  8.475777376758E-02 -2.656798884774E-01
C59 -3.783357944450E-01  4.152422262324E-01  2.343201115226E-01
C60  3.783357944450E-01 -8.475777376759E-02  2.656798884774E-01
H61  3.892215965585E-01 -3.668603301069E-01 -7.233633734511E-02
H62 -3.892215965585E-01  1.331396698931E-01 -4.276636626549E-01
H63 -3.892215965585E-01  3.668603301069E-01  7.233633734511E-02
H64  3.892215965585E-01 -1.331396698931E-01  4.276636626549E-01
C65  4.404883410606E-01 -4.564895319005E-01 -3.648857577298E-01
C66 -4.404883410606E-01  4.351046809952E-02 -1.351142422702E-01
C67 -4.404883410606E-01  4.564895319005E-01  3.648857577298E-01
C68  4.404883410606E-01 -4.351046809952E-02  1.351142422702E-01
C69  4.252644508078E-01  4.754206086977E-01  4.261300553991E-01
C70 -4.252644508078E-01 -2.457939130233E-02  7.386994460093E-02
C71 -4.252644508078E-01 -4.754206086977E-01 -4.261300553991E-01
C72  4.252644508078E-01  2.457939130233E-02 -7.386994460093E-02
C73  3.494196878065E-01  4.593188997886E-01  3.547029762055E-01
C74 -3.494196878065E-01 -4.068110021144E-02  1.452970237945E-01
C75 -3.494196878065E-01 -4.593188997886E-01 -3.547029762055E-01
C76  3.494196878065E-01  4.068110021143E-02 -1.452970237945E-01
H77  3.393840460006E-01  4.146079503970E-01  1.907161647275E-01
H78 -3.393840460006E-01 -8.539204960298E-02  3.092838352725E-01
H79 -3.393840460006E-01 -4.146079503970E-01 -1.907161647275E-01
H80  3.393840460006E-01  8.539204960298E-02 -3.092838352725E-01
C81 -4.853980862119E-01 -4.325154117285E-01 -2.959399493441E-01
C82  4.853980862119E-01  6.748458827150E-02 -2.040600506559E-01
C83  4.853980862119E-01  4.325154117285E-01  2.959399493441E-01
C84 -4.853980862119E-01 -6.748458827150E-02  2.040600506559E-01
H85 -4.741815174722E-01 -3.785258372330E-01 -1.362460949052E-01
H86  4.741815174722E-01  1.214741627670E-01 -3.637539050948E-01
H87  4.741815174722E-01  3.785258372330E-01  1.362460949052E-01
H88 -4.741815174722E-01 -1.214741627670E-01  3.637539050948E-01


#===END

data_OPT_STEP_52

_symmetry_space_group_name_H-M 'P 1'
_cell_length_a     18.00166591
_cell_length_b      7.54592789
_cell_length_c      6.39229534
_cell_angle_alpha   90.000000
_cell_angle_beta   90.923711
_cell_angle_gamma   90.000000

loop_
_atom_site_label
_atom_site_fract_x
_atom_site_fract_y
_atom_site_fract_z
C1  1.582231432595E-01 -3.801400065483E-01  4.826634146165E-01
C2 -1.582231432595E-01  1.198599934517E-01  1.733658538346E-02
C3 -1.582231432595E-01  3.801400065483E-01 -4.826634146165E-01
C4  1.582231432595E-01 -1.198599934517E-01 -1.733658538346E-02
H5  1.743981571113E-01 -2.804452863633E-01 -3.972548023055E-01
H6 -1.743981571113E-01  2.195547136367E-01 -1.027451976945E-01
H7 -1.743981571113E-01  2.804452863633E-01  3.972548023055E-01
H8  1.743981571113E-01 -2.195547136367E-01  1.027451976945E-01
C9  8.419639405177E-02 -3.842503896013E-01  4.099784689409E-01
C10 -8.419639405177E-02  1.157496103987E-01  9.002153105912E-02
C11 -8.419639405177E-02  3.842503896013E-01 -4.099784689409E-01
C12  8.419639405177E-02 -1.157496103987E-01 -9.002153105912E-02
H13  4.328782713436E-02 -2.915977308752E-01  4.782493899014E-01
H14 -4.328782713436E-02  2.084022691248E-01  2.175061009859E-02
H15 -4.328782713436E-02  2.915977308752E-01 -4.782493899014E-01
H16  4.328782713436E-02 -2.084022691248E-01 -2.175061009859E-02
C17  6.203908812511E-02  4.956905010364E-01  2.524663759090E-01
C18 -6.203908812511E-02 -4.309498963643E-03  2.475336240910E-01
C19 -6.203908812511E-02 -4.956905010364E-01 -2.524663759090E-01
C20  6.203908812511E-02  4.309498963643E-03 -2.475336240910E-01
H21  3.097948394513E-03  4.920639059971E-01  1.976864246519E-01
H22 -3.097948394513E-03 -7.936094002911E-03  3.023135753481E-01
H23 -3.097948394513E-03 -4.920639059971E-01 -1.976864246519E-01
H24  3.097948394513E-03  7.936094002911E-03 -3.023135753481E-01
C25  1.149989944715E-01  3.799229225302E-01  1.673924883771E-01
C26 -1.149989944715E-01 -1.200770774698E-01  3.326075116229E-01
C27 -1.149989944715E-01 -3.799229225302E-01 -1.673924883771E-01
C28  1.149989944715E-01  1.200770774698E-01 -3.326075116229E-01
H29  9.867148248698E-02  2.834740541237E-01  4.370194362166E-02
H30 -9.867148248698E-02 -2.165259458763E-01  4.562980563783E-01
H31 -9.867148248698E-02 -2.834740541237E-01 -4.370194362166E-02
H32  9.867148248698E-02  2.165259458763E-01 -4.562980563783E-01
C33  1.889186961381E-01  3.824689260444E-01  2.419002269041E-01
C34 -1.889186961381E-01 -1.175310739556E-01  2.580997730959E-01
C35 -1.889186961381E-01 -3.824689260444E-01 -2.419002269041E-01
C36  1.889186961381E-01  1.175310739556E-01 -2.580997730959E-01
H37  2.290349616257E-01  2.853585072173E-01  1.783958813317E-01
H38 -2.290349616257E-01 -2.146414927827E-01  3.216041186683E-01
H39 -2.290349616257E-01 -2.853585072173E-01 -1.783958813317E-01
H40  2.290349616257E-01  2.146414927827E-01 -3.216041186683E-01
C41  2.118822954824E-01 -4.978238288179E-01  4.010037358322E-01
C42 -2.118822954824E-01  2.176171182055E-03  9.899626416781E-02
C43 -2.118822954824E-01  4.978238288179E-01 -4.010037358322E-01
C44  2.118822954824E-01 -2.176171182055E-03 -9.899626416781E-02
C45  2.904405927800E-01 -4.934543685099E-01  4.806935712020E-01
C46 -2.904405927800E-01  6.545631490069E-03  1.930642879802E-02
C47 -2.904405927800E-01  4.934543685099E-01 -4.806935712020E-01
C48  2.904405927800E-01 -6.545631490070E-03 -1.930642879802E-02
C49  3.063894197938E-01 -4.341490799988E-01 -3.077493578618E-01
C50 -3.063894197938E-01  6.585092000116E-02 -1.922506421382E-01
C51 -3.063894197938E-01  4.341490799988E-01  3.077493578618E-01
C52  3.063894197938E-01 -6.585092000116E-02  1.922506421382E-01
H53  2.596977605471E-01 -4.048844277927E-01 -2.014452376089E-01
H54 -2.596977605471E-01  9.511557220730E-02 -2.985547623911E-01
H55 -2.596977605471E-01  4.048844277927E-01  2.014452376089E-01
H56  2.596977605471E-01 -9.511557220730E-02  2.985547623911E-01
C57  3.783357944450E-01 -4.152422262324E-01 -2.343201115226E-01
C58 -3.783357944450E-01  8.475777376758E-02 -2.656798884774E-01
C59 -3.783357944450E-01  4.152422262324E-01  2.343201115226E-01
C60  3.783357944450E-01 -8.475777376759E-02  2.656798884774E-01
H61  3.892215965585E-01 -3.668603301069E-01 -7.233633734511E-02
H62 -3.892215965585E-01  1.331396698931E-01 -4.276636626549E-01
H63 -3.892215965585E-01  3.668603301069E-01  7.233633734511E-02
H64  3.892215965585E-01 -1.331396698931E-01  4.276636626549E-01
C65  4.404883410606E-01 -4.564895319005E-01 -3.648857577298E-01
C66 -4.404883410606E-01  4.351046809952E-02 -1.351142422702E-01
C67 -4.404883410606E-01  4.564895319005E-01  3.648857577298E-01
C68  4.404883410606E-01 -4.351046809952E-02  1.351142422702E-01
C69  4.252644508078E-01  4.754206086977E-01  4.261300553991E-01
C70 -4.252644508078E-01 -2.457939130233E-02  7.386994460093E-02
C71 -4.252644508078E-01 -4.754206086977E-01 -4.261300553991E-01
C72  4.252644508078E-01  2.457939130233E-02 -7.386994460093E-02
C73  3.494196878065E-01  4.593188997886E-01  3.547029762055E-01
C74 -3.494196878065E-01 -4.068110021144E-02  1.452970237945E-01
C75 -3.494196878065E-01 -4.593188997886E-01 -3.547029762055E-01
C76  3.494196878065E-01  4.068110021143E-02 -1.452970237945E-01
H77  3.393840460006E-01  4.146079503970E-01  1.907161647275E-01
H78 -3.393840460006E-01 -8.539204960298E-02  3.092838352725E-01
H79 -3.393840460006E-01 -4.146079503970E-01 -1.907161647275E-01
H80  3.393840460006E-01  8.539204960298E-02 -3.092838352725E-01
C81 -4.853980862119E-01 -4.325154117285E-01 -2.959399493441E-01
C82  4.853980862119E-01  6.748458827150E-02 -2.040600506559E-01
C83  4.853980862119E-01  4.325154117285E-01  2.959399493441E-01
C84 -4.853980862119E-01 -6.748458827150E-02  2.040600506559E-01
H85 -4.741815174722E-01 -3.785258372330E-01 -1.362460949052E-01
H86  4.741815174722E-01  1.214741627670E-01 -3.637539050948E-01
H87  4.741815174722E-01  3.785258372330E-01  1.362460949052E-01
H88 -4.741815174722E-01 -1.214741627670E-01  3.637539050948E-01


#===END
