###############################################################################
#
#                    CRYSTAL17 CIF FILE
#
###############################################################################

data_OPT_STEP_1

_symmetry_space_group_name_H-M 'P 1'
_cell_length_a      6.30600000
_cell_length_b      7.69700000
_cell_length_c     16.48000000
_cell_angle_alpha   98.769997
_cell_angle_beta   91.250000
_cell_angle_gamma   95.809998

loop_
_atom_site_label
_atom_site_fract_x
_atom_site_fract_y
_atom_site_fract_z
C1  3.360000000000E-02  2.365000000000E-01  3.296600000000E-01
C2 -3.360000000000E-02 -2.365000000000E-01 -3.296600000000E-01
C3  8.440000000000E-02  3.453000000000E-01  4.023000000000E-01
C4 -8.440000000000E-02 -3.453000000000E-01 -4.023000000000E-01
C5  2.919000000000E-01  4.442000000000E-01  4.161300000000E-01
C6 -2.919000000000E-01 -4.442000000000E-01 -4.161300000000E-01
C7  4.389000000000E-01  4.293000000000E-01  3.574500000000E-01
C8 -4.389000000000E-01 -4.293000000000E-01 -3.574500000000E-01
C9  3.944000000000E-01  3.167000000000E-01  2.800400000000E-01
C10 -3.944000000000E-01 -3.167000000000E-01 -2.800400000000E-01
C11  1.854000000000E-01  2.159000000000E-01  2.658600000000E-01
C12 -1.854000000000E-01 -2.159000000000E-01 -2.658600000000E-01
C13  1.384000000000E-01  1.053000000000E-01  1.917800000000E-01
C14 -1.384000000000E-01 -1.053000000000E-01 -1.917800000000E-01
C15  2.889000000000E-01  8.430000000000E-02  1.295200000000E-01
C16 -2.889000000000E-01 -8.430000000000E-02 -1.295200000000E-01
C17  4.992000000000E-01  1.857000000000E-01  1.435400000000E-01
C18 -4.992000000000E-01 -1.857000000000E-01 -1.435400000000E-01
C19 -4.588000000000E-01  2.984000000000E-01  2.188900000000E-01
C20  4.588000000000E-01 -2.984000000000E-01 -2.188900000000E-01
C21  2.445000000000E-01 -2.930000000000E-02  5.449000000000E-02
C22 -2.445000000000E-01  2.930000000000E-02 -5.449000000000E-02
C23  3.951000000000E-01 -5.100000000000E-02 -7.000000000000E-03
C24 -3.951000000000E-01  5.100000000000E-02  7.000000000000E-03
C25 -3.512000000000E-01  1.645000000000E-01  8.197000000000E-02
C26  3.512000000000E-01 -1.645000000000E-01 -8.197000000000E-02
C27 -4.526000000000E-01 -1.129000000000E-01  3.066000000000E-01
C28  4.526000000000E-01  1.129000000000E-01 -3.066000000000E-01
C29 -4.127000000000E-01 -7.170000000000E-02  3.889200000000E-01
C30  4.127000000000E-01  7.170000000000E-02 -3.889200000000E-01
C31 -2.229000000000E-01 -1.218000000000E-01  4.252600000000E-01
C32  2.229000000000E-01  1.218000000000E-01 -4.252600000000E-01
C33 -8.220000000000E-02 -2.096000000000E-01  3.782600000000E-01
C34  8.220000000000E-02  2.096000000000E-01 -3.782600000000E-01
C35 -1.169000000000E-01 -2.567000000000E-01  2.911100000000E-01
C36  1.169000000000E-01  2.567000000000E-01 -2.911100000000E-01
C37 -3.091000000000E-01 -2.059000000000E-01  2.538500000000E-01
C38  3.091000000000E-01  2.059000000000E-01 -2.538500000000E-01
C39 -3.463000000000E-01 -2.500000000000E-01  1.690900000000E-01
C40  3.463000000000E-01  2.500000000000E-01 -1.690900000000E-01
C41 -2.026000000000E-01 -3.408000000000E-01  1.176500000000E-01
C42  2.026000000000E-01  3.408000000000E-01 -1.176500000000E-01
C43 -1.030000000000E-02 -3.909000000000E-01  1.550900000000E-01
C44  1.030000000000E-02  3.909000000000E-01 -1.550900000000E-01
C45  2.500000000000E-02 -3.462000000000E-01  2.412200000000E-01
C46 -2.500000000000E-02  3.462000000000E-01 -2.412200000000E-01
C47 -2.388000000000E-01 -3.843000000000E-01  3.263000000000E-02
C48  2.388000000000E-01  3.843000000000E-01 -3.263000000000E-02
C49 -9.600000000000E-02 -4.745000000000E-01 -1.897000000000E-02
C50  9.600000000000E-02  4.745000000000E-01  1.897000000000E-02
C51  1.320000000000E-01 -4.813000000000E-01  1.045600000000E-01
C52 -1.320000000000E-01  4.813000000000E-01 -1.045600000000E-01
H53 -1.015000000000E-01  1.745000000000E-01  3.212000000000E-01
H54  1.015000000000E-01 -1.745000000000E-01 -3.212000000000E-01
H55 -1.530000000000E-02  3.557000000000E-01  4.431000000000E-01
H56  1.530000000000E-02 -3.557000000000E-01 -4.431000000000E-01
H57  3.251000000000E-01 -4.813000000000E-01  4.657000000000E-01
H58 -3.251000000000E-01  4.813000000000E-01 -4.657000000000E-01
H59 -4.278000000000E-01  4.938000000000E-01  3.676000000000E-01
H60  4.278000000000E-01 -4.938000000000E-01 -3.676000000000E-01
H61  3.700000000000E-03  4.290000000000E-02  1.827000000000E-01
H62 -3.700000000000E-03 -4.290000000000E-02 -1.827000000000E-01
H63 -3.259000000000E-01  3.638000000000E-01  2.281000000000E-01
H64  3.259000000000E-01 -3.638000000000E-01 -2.281000000000E-01
H65  1.103000000000E-01 -9.260000000000E-02  4.520000000000E-02
H66 -1.103000000000E-01  9.260000000000E-02 -4.520000000000E-02
H67 -2.174000000000E-01  2.283000000000E-01  9.120000000000E-02
H68  2.174000000000E-01 -2.283000000000E-01 -9.120000000000E-02
H69  4.241000000000E-01 -8.020000000000E-02  2.838000000000E-01
H70 -4.241000000000E-01  8.020000000000E-02 -2.838000000000E-01
H71  4.921000000000E-01 -1.130000000000E-02  4.218000000000E-01
H72 -4.921000000000E-01  1.130000000000E-02 -4.218000000000E-01
H73 -1.965000000000E-01 -9.340000000000E-02  4.817000000000E-01
H74  1.965000000000E-01  9.340000000000E-02 -4.817000000000E-01
H75  3.960000000000E-02 -2.400000000000E-01  4.031000000000E-01
H76 -3.960000000000E-02  2.400000000000E-01 -4.031000000000E-01
H77 -4.695000000000E-01 -2.188000000000E-01  1.456000000000E-01
H78  4.695000000000E-01  2.188000000000E-01 -1.456000000000E-01
H79  1.474000000000E-01 -3.777000000000E-01  2.653000000000E-01
H80 -1.474000000000E-01  3.777000000000E-01 -2.653000000000E-01
H81 -3.618000000000E-01 -3.526000000000E-01  9.100000000000E-03
H82  3.618000000000E-01  3.526000000000E-01 -9.100000000000E-03
H83  2.544000000000E-01  4.868000000000E-01  1.284000000000E-01
H84 -2.544000000000E-01 -4.868000000000E-01 -1.284000000000E-01


#===END

data_OPT_STEP_2

_symmetry_space_group_name_H-M 'P 1'
_cell_length_a      6.30600000
_cell_length_b      7.69700000
_cell_length_c     16.48000000
_cell_angle_alpha   98.769997
_cell_angle_beta   91.250000
_cell_angle_gamma   95.809998

loop_
_atom_site_label
_atom_site_fract_x
_atom_site_fract_y
_atom_site_fract_z
C1  3.360000000000E-02  2.365000000000E-01  3.296600000000E-01
C2 -3.360000000000E-02 -2.365000000000E-01 -3.296600000000E-01
C3  8.440000000000E-02  3.453000000000E-01  4.023000000000E-01
C4 -8.440000000000E-02 -3.453000000000E-01 -4.023000000000E-01
C5  2.919000000000E-01  4.442000000000E-01  4.161300000000E-01
C6 -2.919000000000E-01 -4.442000000000E-01 -4.161300000000E-01
C7  4.389000000000E-01  4.293000000000E-01  3.574500000000E-01
C8 -4.389000000000E-01 -4.293000000000E-01 -3.574500000000E-01
C9  3.944000000000E-01  3.167000000000E-01  2.800400000000E-01
C10 -3.944000000000E-01 -3.167000000000E-01 -2.800400000000E-01
C11  1.854000000000E-01  2.159000000000E-01  2.658600000000E-01
C12 -1.854000000000E-01 -2.159000000000E-01 -2.658600000000E-01
C13  1.384000000000E-01  1.053000000000E-01  1.917800000000E-01
C14 -1.384000000000E-01 -1.053000000000E-01 -1.917800000000E-01
C15  2.889000000000E-01  8.430000000000E-02  1.295200000000E-01
C16 -2.889000000000E-01 -8.430000000000E-02 -1.295200000000E-01
C17  4.992000000000E-01  1.857000000000E-01  1.435400000000E-01
C18 -4.992000000000E-01 -1.857000000000E-01 -1.435400000000E-01
C19 -4.588000000000E-01  2.984000000000E-01  2.188900000000E-01
C20  4.588000000000E-01 -2.984000000000E-01 -2.188900000000E-01
C21  2.445000000000E-01 -2.930000000000E-02  5.449000000000E-02
C22 -2.445000000000E-01  2.930000000000E-02 -5.449000000000E-02
C23  3.951000000000E-01 -5.100000000000E-02 -7.000000000000E-03
C24 -3.951000000000E-01  5.100000000000E-02  7.000000000000E-03
C25 -3.512000000000E-01  1.645000000000E-01  8.197000000000E-02
C26  3.512000000000E-01 -1.645000000000E-01 -8.197000000000E-02
C27 -4.526000000000E-01 -1.129000000000E-01  3.066000000000E-01
C28  4.526000000000E-01  1.129000000000E-01 -3.066000000000E-01
C29 -4.127000000000E-01 -7.170000000000E-02  3.889200000000E-01
C30  4.127000000000E-01  7.170000000000E-02 -3.889200000000E-01
C31 -2.229000000000E-01 -1.218000000000E-01  4.252600000000E-01
C32  2.229000000000E-01  1.218000000000E-01 -4.252600000000E-01
C33 -8.220000000000E-02 -2.096000000000E-01  3.782600000000E-01
C34  8.220000000000E-02  2.096000000000E-01 -3.782600000000E-01
C35 -1.169000000000E-01 -2.567000000000E-01  2.911100000000E-01
C36  1.169000000000E-01  2.567000000000E-01 -2.911100000000E-01
C37 -3.091000000000E-01 -2.059000000000E-01  2.538500000000E-01
C38  3.091000000000E-01  2.059000000000E-01 -2.538500000000E-01
C39 -3.463000000000E-01 -2.500000000000E-01  1.690900000000E-01
C40  3.463000000000E-01  2.500000000000E-01 -1.690900000000E-01
C41 -2.026000000000E-01 -3.408000000000E-01  1.176500000000E-01
C42  2.026000000000E-01  3.408000000000E-01 -1.176500000000E-01
C43 -1.030000000000E-02 -3.909000000000E-01  1.550900000000E-01
C44  1.030000000000E-02  3.909000000000E-01 -1.550900000000E-01
C45  2.500000000000E-02 -3.462000000000E-01  2.412200000000E-01
C46 -2.500000000000E-02  3.462000000000E-01 -2.412200000000E-01
C47 -2.388000000000E-01 -3.843000000000E-01  3.263000000000E-02
C48  2.388000000000E-01  3.843000000000E-01 -3.263000000000E-02
C49 -9.600000000000E-02 -4.745000000000E-01 -1.897000000000E-02
C50  9.600000000000E-02  4.745000000000E-01  1.897000000000E-02
C51  1.320000000000E-01 -4.813000000000E-01  1.045600000000E-01
C52 -1.320000000000E-01  4.813000000000E-01 -1.045600000000E-01
H53 -1.015000000000E-01  1.745000000000E-01  3.212000000000E-01
H54  1.015000000000E-01 -1.745000000000E-01 -3.212000000000E-01
H55 -1.530000000000E-02  3.557000000000E-01  4.431000000000E-01
H56  1.530000000000E-02 -3.557000000000E-01 -4.431000000000E-01
H57  3.251000000000E-01 -4.813000000000E-01  4.657000000000E-01
H58 -3.251000000000E-01  4.813000000000E-01 -4.657000000000E-01
H59 -4.278000000000E-01  4.938000000000E-01  3.676000000000E-01
H60  4.278000000000E-01 -4.938000000000E-01 -3.676000000000E-01
H61  3.700000000000E-03  4.290000000000E-02  1.827000000000E-01
H62 -3.700000000000E-03 -4.290000000000E-02 -1.827000000000E-01
H63 -3.259000000000E-01  3.638000000000E-01  2.281000000000E-01
H64  3.259000000000E-01 -3.638000000000E-01 -2.281000000000E-01
H65  1.103000000000E-01 -9.260000000000E-02  4.520000000000E-02
H66 -1.103000000000E-01  9.260000000000E-02 -4.520000000000E-02
H67 -2.174000000000E-01  2.283000000000E-01  9.120000000000E-02
H68  2.174000000000E-01 -2.283000000000E-01 -9.120000000000E-02
H69  4.241000000000E-01 -8.020000000000E-02  2.838000000000E-01
H70 -4.241000000000E-01  8.020000000000E-02 -2.838000000000E-01
H71  4.921000000000E-01 -1.130000000000E-02  4.218000000000E-01
H72 -4.921000000000E-01  1.130000000000E-02 -4.218000000000E-01
H73 -1.965000000000E-01 -9.340000000000E-02  4.817000000000E-01
H74  1.965000000000E-01  9.340000000000E-02 -4.817000000000E-01
H75  3.960000000000E-02 -2.400000000000E-01  4.031000000000E-01
H76 -3.960000000000E-02  2.400000000000E-01 -4.031000000000E-01
H77 -4.695000000000E-01 -2.188000000000E-01  1.456000000000E-01
H78  4.695000000000E-01  2.188000000000E-01 -1.456000000000E-01
H79  1.474000000000E-01 -3.777000000000E-01  2.653000000000E-01
H80 -1.474000000000E-01  3.777000000000E-01 -2.653000000000E-01
H81 -3.618000000000E-01 -3.526000000000E-01  9.100000000000E-03
H82  3.618000000000E-01  3.526000000000E-01 -9.100000000000E-03
H83  2.544000000000E-01  4.868000000000E-01  1.284000000000E-01
H84 -2.544000000000E-01 -4.868000000000E-01 -1.284000000000E-01


#===END

data_OPT_STEP_3

_symmetry_space_group_name_H-M 'P 1'
_cell_length_a      6.30820348
_cell_length_b      7.68881126
_cell_length_c     16.50789170
_cell_angle_alpha   98.598258
_cell_angle_beta   91.304711
_cell_angle_gamma   95.955562

loop_
_atom_site_label
_atom_site_fract_x
_atom_site_fract_y
_atom_site_fract_z
C1  3.196804540972E-02  2.357838528560E-01  3.286976184198E-01
C2 -3.196804540972E-02 -2.357838528560E-01 -3.286976184198E-01
C3  8.219603576740E-02  3.461666772820E-01  4.010711439506E-01
C4 -8.219603576740E-02 -3.461666772820E-01 -4.010711439506E-01
C5  2.904992979156E-01  4.450670397172E-01  4.151986440598E-01
C6 -2.904992979156E-01 -4.450670397172E-01 -4.151986440598E-01
C7  4.385600436173E-01  4.309546286265E-01  3.565327963183E-01
C8 -4.385600436173E-01 -4.309546286265E-01 -3.565327963183E-01
C9  3.942135263506E-01  3.168355270666E-01  2.794429965592E-01
C10 -3.942135263506E-01 -3.168355270666E-01 -2.794429965592E-01
C11  1.841208115112E-01  2.164851903680E-01  2.649444915301E-01
C12 -1.841208115112E-01 -2.164851903680E-01 -2.649444915301E-01
C13  1.371733676534E-01  1.044554609637E-01  1.911293757894E-01
C14 -1.371733676534E-01 -1.044554609637E-01 -1.911293757894E-01
C15  2.882708174647E-01  8.439205662582E-02  1.289541942605E-01
C16 -2.882708174647E-01 -8.439205662582E-02 -1.289541942605E-01
C17  4.995914239253E-01  1.852604812448E-01  1.433274663807E-01
C18 -4.995914239253E-01 -1.852604812448E-01 -1.433274663807E-01
C19 -4.574355148911E-01  2.985290442438E-01  2.187019458250E-01
C20  4.574355148911E-01 -2.985290442438E-01 -2.187019458250E-01
C21  2.434159473580E-01 -3.002982636781E-02  5.424803920164E-02
C22 -2.434159473580E-01  3.002982636781E-02 -5.424803920164E-02
C23  3.943998263748E-01 -5.047014473720E-02 -7.229385421702E-03
C24 -3.943998263748E-01  5.047014473720E-02  7.229385421702E-03
C25 -3.501906495680E-01  1.651543006098E-01  8.193367111872E-02
C26  3.501906495680E-01 -1.651543006098E-01 -8.193367111872E-02
C27 -4.518002792770E-01 -1.134320628402E-01  3.059056249195E-01
C28  4.518002792770E-01  1.134320628402E-01 -3.059056249195E-01
C29 -4.113283648169E-01 -7.262642115003E-02  3.884110832796E-01
C30  4.113283648169E-01  7.262642115003E-02 -3.884110832796E-01
C31 -2.214370067190E-01 -1.230404397739E-01  4.249372176699E-01
C32  2.214370067190E-01  1.230404397739E-01 -4.249372176699E-01
C33 -7.996466097799E-02 -2.105408707752E-01  3.778261839668E-01
C34  7.996466097799E-02  2.105408707752E-01 -3.778261839668E-01
C35 -1.152156730450E-01 -2.567827437253E-01  2.905912488952E-01
C36  1.152156730450E-01  2.567827437253E-01 -2.905912488952E-01
C37 -3.081601854728E-01 -2.067166575793E-01  2.533698007754E-01
C38  3.081601854728E-01  2.067166575793E-01 -2.533698007754E-01
C39 -3.457532812514E-01 -2.496763722964E-01  1.686610543664E-01
C40  3.457532812514E-01  2.496763722964E-01 -1.686610543664E-01
C41 -2.023786855545E-01 -3.412897069500E-01  1.174158513179E-01
C42  2.023786855545E-01  3.412897069500E-01 -1.174158513179E-01
C43 -9.613249073410E-03 -3.912931737597E-01  1.548423489454E-01
C44  9.613249073410E-03  3.912931737597E-01 -1.548423489454E-01
C45  2.638844027815E-02 -3.470878324653E-01  2.409857643071E-01
C46 -2.638844027815E-02  3.470878324653E-01 -2.409857643071E-01
C47 -2.392521201375E-01 -3.842229321237E-01  3.236220886688E-02
C48  2.392521201375E-01  3.842229321237E-01 -3.236220886688E-02
C49 -9.656175371690E-02 -4.750382406174E-01 -1.890533789479E-02
C50  9.656175371690E-02  4.750382406174E-01  1.890533789479E-02
C51  1.329360948406E-01 -4.817188312906E-01  1.045188270887E-01
C52 -1.329360948406E-01  4.817188312906E-01 -1.045188270887E-01
H53 -1.068322478216E-01  1.693947506574E-01  3.201721637297E-01
H54  1.068322478216E-01 -1.693947506574E-01 -3.201721637297E-01
H55 -2.119034347618E-02  3.570636783878E-01  4.430673400002E-01
H56  2.119034347618E-02 -3.570636783878E-01 -4.430673400002E-01
H57  3.255363798800E-01 -4.795271761721E-01  4.667630932979E-01
H58 -3.255363798800E-01  4.795271761721E-01 -4.667630932979E-01
H59 -4.236441105003E-01  4.984581616571E-01  3.668051856517E-01
H60  4.236441105003E-01 -4.984581616571E-01 -3.668051856517E-01
H61 -1.509637804643E-03  3.810459386637E-02  1.819987499054E-01
H62  1.509637804643E-03 -3.810459386637E-02 -1.819987499054E-01
H63 -3.193107844763E-01  3.656391605904E-01  2.284360547765E-01
H64  3.193107844763E-01 -3.656391605904E-01 -2.284360547765E-01
H65  1.050521633777E-01 -9.693560499753E-02  4.492776654214E-02
H66 -1.050521633777E-01  9.693560499753E-02 -4.492776654214E-02
H67 -2.119607679707E-01  2.320736506903E-01  9.135769385002E-02
H68  2.119607679707E-01 -2.320736506903E-01 -9.135769385002E-02
H69  4.210835401721E-01 -7.917131765195E-02  2.821373331026E-01
H70 -4.210835401721E-01  7.917131765195E-02 -2.821373331026E-01
H71  4.908823429511E-01 -9.942603881395E-03  4.224459779225E-01
H72 -4.908823429511E-01  9.942603881396E-03 -4.224459779225E-01
H73 -1.941695096785E-01 -9.383746369183E-02  4.832545898687E-01
H74  1.941695096785E-01  9.383746369183E-02 -4.832545898687E-01
H75  4.597247199343E-02 -2.425935196034E-01  4.033642232594E-01
H76 -4.597247199343E-02  2.425935196034E-01 -4.033642232594E-01
H77 -4.724548095794E-01 -2.161588922163E-01  1.442770294989E-01
H78  4.724548095794E-01  2.161588922163E-01 -1.442770294989E-01
H79  1.525199945944E-01 -3.805592683280E-01  2.659119643268E-01
H80 -1.525199945944E-01  3.805592683280E-01 -2.659119643268E-01
H81 -3.660195974462E-01 -3.507034154258E-01  7.940023395980E-03
H82  3.660195974462E-01  3.507034154258E-01 -7.940023395980E-03
H83  2.592980024941E-01  4.847713021013E-01  1.291981336196E-01
H84 -2.592980024941E-01 -4.847713021013E-01 -1.291981336196E-01


#===END

data_OPT_STEP_4

_symmetry_space_group_name_H-M 'P 1'
_cell_length_a      6.38982702
_cell_length_b      7.72532381
_cell_length_c     16.56747537
_cell_angle_alpha   98.704522
_cell_angle_beta   91.116058
_cell_angle_gamma   95.725761

loop_
_atom_site_label
_atom_site_fract_x
_atom_site_fract_y
_atom_site_fract_z
C1  3.322422341934E-02  2.396528554556E-01  3.274609014624E-01
C2 -3.322422341934E-02 -2.396528554556E-01 -3.274609014624E-01
C3  8.477113175685E-02  3.453662166203E-01  4.008129488920E-01
C4 -8.477113175685E-02 -3.453662166203E-01 -4.008129488920E-01
C5  2.883311363089E-01  4.469505907477E-01  4.143466868220E-01
C6 -2.883311363089E-01 -4.469505907477E-01 -4.143466868220E-01
C7  4.378818086827E-01  4.299890092845E-01  3.563152973046E-01
C8 -4.378818086827E-01 -4.299890092845E-01 -3.563152973046E-01
C9  3.899519098778E-01  3.229749349467E-01  2.775478084901E-01
C10 -3.899519098778E-01 -3.229749349467E-01 -2.775478084901E-01
C11  1.856758944420E-01  2.180582116503E-01  2.644285870462E-01
C12 -1.856758944420E-01 -2.180582116503E-01 -2.644285870462E-01
C13  1.389070367937E-01  1.067175459664E-01  1.904755379372E-01
C14 -1.389070367937E-01 -1.067175459664E-01 -1.904755379372E-01
C15  2.897996379972E-01  8.558635698404E-02  1.285391923179E-01
C16 -2.897996379972E-01 -8.558635698404E-02 -1.285391923179E-01
C17  4.959571369829E-01  1.891445310290E-01  1.419419642439E-01
C18 -4.959571369829E-01 -1.891445310290E-01 -1.419419642439E-01
C19 -4.608941531091E-01  3.031409958597E-01  2.173442403839E-01
C20  4.608941531091E-01 -3.031409958597E-01 -2.173442403839E-01
C21  2.450171357055E-01 -2.840120407779E-02  5.399979844365E-02
C22 -2.450171357055E-01  2.840120407779E-02 -5.399979844365E-02
C23  3.975889298592E-01 -5.306539303988E-02 -6.400717919626E-03
C24 -3.975889298592E-01  5.306539303988E-02  6.400717919626E-03
C25 -3.518670084695E-01  1.646149495437E-01  8.188917737222E-02
C26  3.518670084695E-01 -1.646149495437E-01 -8.188917737222E-02
C27 -4.503723352679E-01 -1.147473115953E-01  3.055773893121E-01
C28  4.503723352679E-01  1.147473115953E-01 -3.055773893121E-01
C29 -4.101934645311E-01 -7.450255040840E-02  3.881573053511E-01
C30  4.101934645311E-01  7.450255040840E-02 -3.881573053511E-01
C31 -2.220260965514E-01 -1.238680267553E-01  4.245359243312E-01
C32  2.220260965514E-01  1.238680267553E-01 -4.245359243312E-01
C33 -8.095653954113E-02 -2.114487905522E-01  3.771709854012E-01
C34  8.095653954113E-02  2.114487905522E-01 -3.771709854012E-01
C35 -1.178161271491E-01 -2.595356254011E-01  2.901521424207E-01
C36  1.178161271491E-01  2.595356254011E-01 -2.901521424207E-01
C37 -3.065849475932E-01 -2.072740929100E-01  2.530937363522E-01
C38  3.065849475932E-01  2.072740929100E-01 -2.530937363522E-01
C39 -3.457556431866E-01 -2.524094656876E-01  1.687836870877E-01
C40  3.457556431866E-01  2.524094656876E-01 -1.687836870877E-01
C41 -2.013184231779E-01 -3.416103027748E-01  1.173502212191E-01
C42  2.013184231779E-01  3.416103027748E-01 -1.173502212191E-01
C43 -1.091677699555E-02 -3.916136701984E-01  1.544623927857E-01
C44  1.091677699555E-02  3.916136701984E-01 -1.544623927857E-01
C45  2.577249285634E-02 -3.461216526184E-01  2.404637470671E-01
C46 -2.577249285634E-02  3.461216526184E-01 -2.404637470671E-01
C47 -2.382958859544E-01 -3.851249873745E-01  3.236675483419E-02
C48  2.382958859544E-01  3.851249873745E-01 -3.236675483419E-02
C49 -9.392481171694E-02 -4.729726258999E-01 -1.881054769401E-02
C50  9.392481171694E-02  4.729726258999E-01  1.881054769401E-02
C51  1.315401958772E-01 -4.814914959152E-01  1.042086289133E-01
C52 -1.315401958772E-01  4.814914959152E-01 -1.042086289133E-01
H53 -1.044223997446E-01  1.597476285781E-01  3.205355651659E-01
H54  1.044223997446E-01 -1.597476285781E-01 -3.205355651659E-01
H55 -2.294765314279E-02  3.579118652934E-01  4.446153856657E-01
H56  2.294765314279E-02 -3.579118652934E-01 -4.446153856657E-01
H57  3.252052728147E-01 -4.792815401264E-01  4.696313722237E-01
H58 -3.252052728147E-01  4.792815401264E-01 -4.696313722237E-01
H59 -4.188159416010E-01  4.989029330081E-01  3.669449137071E-01
H60  4.188159416010E-01 -4.989029330081E-01 -3.669449137071E-01
H61  3.921794254189E-04  2.839416261848E-02  1.829936812251E-01
H62 -3.921794254189E-04 -2.839416261848E-02 -1.829936812251E-01
H63 -3.115021735025E-01  3.614964439075E-01  2.302030331113E-01
H64  3.115021735025E-01 -3.614964439075E-01 -2.302030331113E-01
H65  1.047050328462E-01 -1.032270472622E-01  4.560886169694E-02
H66 -1.047050328462E-01  1.032270472622E-01 -4.560886169694E-02
H67 -2.091520742330E-01  2.347182525523E-01  9.161932538793E-02
H68  2.091520742330E-01 -2.347182525523E-01 -9.161932538793E-02
H69  4.206139940602E-01 -7.559100943080E-02  2.802769838678E-01
H70 -4.206139940602E-01  7.559100943080E-02 -2.802769838678E-01
H71  4.911931885684E-01 -5.623180768920E-03  4.240346538615E-01
H72 -4.911931885684E-01  5.623180768920E-03 -4.240346538615E-01
H73 -1.952275644181E-01 -9.415348270344E-02  4.855949527080E-01
H74  1.952275644181E-01  9.415348270344E-02 -4.855949527080E-01
H75  4.934048474228E-02 -2.467678111241E-01  4.031730457365E-01
H76 -4.934048474228E-02  2.467678111241E-01 -4.031730457365E-01
H77 -4.718940870060E-01 -2.096714331755E-01  1.428807553278E-01
H78  4.718940870060E-01  2.096714331755E-01 -1.428807553278E-01
H79  1.537632459191E-01 -3.853583222130E-01  2.665502335504E-01
H80 -1.537632459191E-01  3.853583222130E-01 -2.665502335504E-01
H81 -3.669946883416E-01 -3.462989189336E-01  6.613510932826E-03
H82  3.669946883416E-01  3.462989189336E-01 -6.613510932826E-03
H83  2.616211483932E-01  4.820928832603E-01  1.299477731453E-01
H84 -2.616211483932E-01 -4.820928832603E-01 -1.299477731453E-01


#===END

data_OPT_STEP_5

_symmetry_space_group_name_H-M 'P 1'
_cell_length_a      6.43089894
_cell_length_b      7.84975453
_cell_length_c     16.65785844
_cell_angle_alpha   99.593124
_cell_angle_beta   90.677042
_cell_angle_gamma   96.589549

loop_
_atom_site_label
_atom_site_fract_x
_atom_site_fract_y
_atom_site_fract_z
C1  3.846993073048E-02  2.324827903301E-01  3.289574965633E-01
C2 -3.846993073048E-02 -2.324827903301E-01 -3.289574965633E-01
C3  8.551472699961E-02  3.471318929346E-01  4.003404056615E-01
C4 -8.551472699961E-02 -3.471318929346E-01 -4.003404056615E-01
C5  2.885300546965E-01  4.492852445922E-01  4.140003417855E-01
C6 -2.885300546965E-01 -4.492852445922E-01 -4.140003417855E-01
C7  4.351221602442E-01  4.378002325831E-01  3.547540264556E-01
C8 -4.351221602442E-01 -4.378002325831E-01 -3.547540264556E-01
C9  3.902689724870E-01  3.245129977867E-01  2.773040424484E-01
C10 -3.902689724870E-01 -3.245129977867E-01 -2.773040424484E-01
C11  1.849651710036E-01  2.217065510547E-01  2.634809013257E-01
C12 -1.849651710036E-01 -2.217065510547E-01 -2.634809013257E-01
C13  1.415098132433E-01  1.034756017892E-01  1.910488198860E-01
C14 -1.415098132433E-01 -1.034756017892E-01 -1.910488198860E-01
C15  2.889467794016E-01  8.846743019450E-02  1.276987632432E-01
C16 -2.889467794016E-01 -8.846743019450E-02 -1.276987632432E-01
C17  4.954526582932E-01  1.909861071264E-01  1.415567526021E-01
C18 -4.954526582932E-01 -1.909861071264E-01 -1.415567526021E-01
C19 -4.584519179834E-01  3.009487463657E-01  2.181396112333E-01
C20  4.584519179834E-01 -3.009487463657E-01 -2.181396112333E-01
C21  2.471096216652E-01 -3.185872934240E-02  5.467645171103E-02
C22 -2.471096216652E-01  3.185872934240E-02 -5.467645171103E-02
C23  3.968236952015E-01 -5.152175465021E-02 -6.882515255751E-03
C24 -3.968236952015E-01  5.152175465021E-02  6.882515255751E-03
C25 -3.543597631809E-01  1.698938227725E-01  8.079910946873E-02
C26  3.543597631809E-01 -1.698938227725E-01 -8.079910946873E-02
C27 -4.381841075101E-01 -1.064416626378E-01  3.058036070635E-01
C28  4.381841075101E-01  1.064416626378E-01 -3.058036070635E-01
C29 -4.018919772187E-01 -7.116916658779E-02  3.886324738645E-01
C30  4.018919772187E-01  7.116916658779E-02 -3.886324738645E-01
C31 -2.242683860457E-01 -1.312477687062E-01  4.252736052242E-01
C32  2.242683860457E-01  1.312477687062E-01 -4.252736052242E-01
C33 -8.693548296202E-02 -2.211604597031E-01  3.776506243688E-01
C34  8.693548296202E-02  2.211604597031E-01 -3.776506243688E-01
C35 -1.207634210023E-01 -2.650809430331E-01  2.904618700201E-01
C36  1.207634210023E-01  2.650809430331E-01 -2.904618700201E-01
C37 -3.014577372364E-01 -2.060398257835E-01  2.534681307276E-01
C38  3.014577372364E-01  2.060398257835E-01 -2.534681307276E-01
C39 -3.337433270220E-01 -2.418490942629E-01  1.686646249540E-01
C40  3.337433270220E-01  2.418490942629E-01 -1.686646249540E-01
C41 -1.969066266407E-01 -3.392313006782E-01  1.174922035454E-01
C42  1.969066266407E-01  3.392313006782E-01 -1.174922035454E-01
C43 -1.598217305963E-02 -3.981921094436E-01  1.547294434680E-01
C44  1.598217305963E-02  3.981921094436E-01 -1.547294434680E-01
C45  1.614684386437E-02 -3.583517309054E-01  2.409766249250E-01
C46 -1.614684386437E-02  3.583517309054E-01 -2.409766249250E-01
C47 -2.291469726530E-01 -3.770128492818E-01  3.224225300341E-02
C48  2.291469726530E-01  3.770128492818E-01 -3.224225300341E-02
C49 -9.107561774505E-02 -4.713315284389E-01 -1.866990890464E-02
C50  9.107561774505E-02  4.713315284389E-01  1.866990890464E-02
C51  1.233509534687E-01 -4.896715697434E-01  1.043781119025E-01
C52 -1.233509534687E-01  4.896715697434E-01 -1.043781119025E-01
H53 -9.350096223450E-02  1.382959648189E-01  3.248049145884E-01
H54  9.350096223450E-02 -1.382959648189E-01 -3.248049145884E-01
H55 -2.271318608560E-02  3.588108858332E-01  4.449081549697E-01
H56  2.271318608560E-02 -3.588108858332E-01 -4.449081549697E-01
H57  3.268318411771E-01 -4.790436743788E-01  4.708052087433E-01
H58 -3.268318411771E-01  4.790436743788E-01 -4.708052087433E-01
H59 -4.201336434660E-01 -4.918094396513E-01  3.653532046096E-01
H60  4.201336434660E-01  4.918094396513E-01 -3.653532046096E-01
H61  8.486590716730E-03  1.092929968343E-02  1.865106635623E-01
H62 -8.486590716730E-03 -1.092929968343E-02 -1.865106635623E-01
H63 -3.015620637435E-01  3.494617438747E-01  2.337796663038E-01
H64  3.015620637435E-01 -3.494617438747E-01 -2.337796663038E-01
H65  1.098024018247E-01 -1.163222021270E-01  4.825769242797E-02
H66 -1.098024018247E-01  1.163222021270E-01 -4.825769242797E-02
H67 -2.113598469024E-01  2.435691229572E-01  9.010071242181E-02
H68  2.113598469024E-01 -2.435691229572E-01 -9.010071242181E-02
H69  4.394417099502E-01 -5.793069349341E-02  2.797994505908E-01
H70 -4.394417099502E-01  5.793069349341E-02 -2.797994505908E-01
H71 -4.968028436865E-01  3.520873916122E-03  4.248654704106E-01
H72  4.968028436865E-01 -3.520873916122E-03 -4.248654704106E-01
H73 -1.991533082703E-01 -1.033068276293E-01  4.871553775639E-01
H74  1.991533082703E-01  1.033068276293E-01 -4.871553775639E-01
H75  4.433691620082E-02 -2.559199429597E-01  4.031506238645E-01
H76 -4.433691620082E-02  2.559199429597E-01 -4.031506238645E-01
H77 -4.512408762473E-01 -1.865802614509E-01  1.418988916724E-01
H78  4.512408762473E-01  1.865802614509E-01 -1.418988916724E-01
H79  1.395373062538E-01 -4.042005896249E-01  2.674564666981E-01
H80 -1.395373062538E-01  4.042005896249E-01 -2.674564666981E-01
H81 -3.523470687370E-01 -3.303964996830E-01  5.910556094555E-03
H82  3.523470687370E-01  3.303964996830E-01 -5.910556094555E-03
H83  2.505956264288E-01  4.700235859141E-01  1.304071157724E-01
H84 -2.505956264288E-01 -4.700235859141E-01 -1.304071157724E-01


#===END

data_OPT_STEP_6

_symmetry_space_group_name_H-M 'P 1'
_cell_length_a      6.25664591
_cell_length_b      8.14940520
_cell_length_c     16.86024252
_cell_angle_alpha  100.952844
_cell_angle_beta   91.176282
_cell_angle_gamma   96.552413

loop_
_atom_site_label
_atom_site_fract_x
_atom_site_fract_y
_atom_site_fract_z
C1  3.239601560771E-02  2.336496394676E-01  3.266334679823E-01
C2 -3.239601560771E-02 -2.336496394676E-01 -3.266334679823E-01
C3  8.026976822756E-02  3.496057104850E-01  3.974346871427E-01
C4 -8.026976822756E-02 -3.496057104850E-01 -3.974346871427E-01
C5  2.851149602667E-01  4.564323388832E-01  4.101762764032E-01
C6 -2.851149602667E-01 -4.564323388832E-01 -4.101762764032E-01
C7  4.364739596684E-01  4.422752801428E-01  3.518838042733E-01
C8 -4.364739596684E-01 -4.422752801428E-01 -3.518838042733E-01
C9  3.875123285988E-01  3.323171274482E-01  2.737874676276E-01
C10 -3.875123285988E-01 -3.323171274482E-01 -2.737874676276E-01
C11  1.808790725344E-01  2.234514975345E-01  2.614044824239E-01
C12 -1.808790725344E-01 -2.234514975345E-01 -2.614044824239E-01
C13  1.406995725868E-01  9.500464205026E-02  1.918640530361E-01
C14 -1.406995725868E-01 -9.500464205026E-02 -1.918640530361E-01
C15  2.863024121921E-01  8.810572495964E-02  1.268265192538E-01
C16 -2.863024121921E-01 -8.810572495964E-02 -1.268265192538E-01
C17  4.932440729942E-01  1.979445514152E-01  1.389043610724E-01
C18 -4.932440729942E-01 -1.979445514152E-01 -1.389043610724E-01
C19 -4.627578316655E-01  3.169520875633E-01  2.131579854785E-01
C20  4.627578316655E-01 -3.169520875633E-01 -2.131579854785E-01
C21  2.473983036778E-01 -4.187068645963E-02  5.684103707400E-02
C22 -2.473983036778E-01  4.187068645963E-02 -5.684103707400E-02
C23  3.962379842528E-01 -5.442959040203E-02 -6.132388027655E-03
C24 -3.962379842528E-01  5.442959040203E-02  6.132388027655E-03
C25 -3.544999359662E-01  1.788546026569E-01  7.821168684192E-02
C26  3.544999359662E-01 -1.788546026569E-01 -7.821168684192E-02
C27 -4.336737741219E-01 -1.014721805612E-01  3.059253530082E-01
C28  4.336737741219E-01  1.014721805612E-01 -3.059253530082E-01
C29 -3.992348763544E-01 -7.729520921877E-02  3.891705328266E-01
C30  3.992348763544E-01  7.729520921877E-02 -3.891705328266E-01
C31 -2.247989569321E-01 -1.486065834947E-01  4.255162387783E-01
C32  2.247989569321E-01  1.486065834947E-01 -4.255162387783E-01
C33 -9.227759999861E-02 -2.460798300524E-01  3.775424734628E-01
C34  9.227759999861E-02  2.460798300524E-01 -3.775424734628E-01
C35 -1.239020383310E-01 -2.780346167569E-01  2.899479242646E-01
C36  1.239020383310E-01  2.780346167569E-01 -2.899479242646E-01
C37 -3.071217111945E-01 -2.162000041503E-01  2.538086878313E-01
C38  3.071217111945E-01  2.162000041503E-01 -2.538086878313E-01
C39 -3.347519603364E-01 -2.396591474973E-01  1.686959384352E-01
C40  3.347519603364E-01  2.396591474973E-01 -1.686959384352E-01
C41 -2.009971863558E-01 -3.433133171318E-01  1.175739571545E-01
C42  2.009971863558E-01  3.433133171318E-01 -1.175739571545E-01
C43 -1.920289446205E-02 -4.074804460996E-01  1.543806710458E-01
C44  1.920289446205E-02  4.074804460996E-01 -1.543806710458E-01
C45  1.080868891801E-02 -3.759198880424E-01  2.406995262151E-01
C46 -1.080868891801E-02  3.759198880424E-01 -2.406995262151E-01
C47 -2.257502072868E-01 -3.659618584236E-01  3.171333983561E-02
C48  2.257502072868E-01  3.659618584236E-01 -3.171333983561E-02
C49 -9.221427944739E-02 -4.697711928653E-01 -1.839241352931E-02
C50  9.221427944739E-02  4.697711928653E-01  1.839241352931E-02
C51  1.178077800026E-01  4.949913546472E-01  1.046091659707E-01
C52 -1.178077800026E-01 -4.949913546472E-01 -1.046091659707E-01
H53 -1.038159390563E-01  1.355944440929E-01  3.223657357103E-01
H54  1.038159390563E-01 -1.355944440929E-01 -3.223657357103E-01
H55 -3.373706332442E-02  3.600534459813E-01  4.438946977975E-01
H56  3.373706332442E-02 -3.600534459813E-01 -4.438946977975E-01
H57  3.270393980723E-01 -4.740267579158E-01  4.702275550940E-01
H58 -3.270393980723E-01  4.740267579158E-01 -4.702275550940E-01
H59 -4.029657637236E-01 -4.964838009154E-01  3.652538744847E-01
H60  4.029657637236E-01  4.964838009154E-01 -3.652538744847E-01
H61  1.485062057612E-02 -2.439803744961E-02  1.932300633908E-01
H62 -1.485062057612E-02  2.439803744961E-02 -1.932300633908E-01
H63 -2.941103071612E-01  3.565884671522E-01  2.314033584147E-01
H64  2.941103071612E-01 -3.565884671522E-01 -2.314033584147E-01
H65  1.137661203449E-01 -1.504965497738E-01  5.574409411410E-02
H66 -1.137661203449E-01  1.504965497738E-01 -5.574409411410E-02
H67 -2.033411679501E-01  2.572899352757E-01  8.740357737155E-02
H68  2.033411679501E-01 -2.572899352757E-01 -8.740357737155E-02
H69  4.717468447396E-01  5.833167661911E-04  2.759471072537E-01
H70 -4.717468447396E-01 -5.833167661911E-04 -2.759471072537E-01
H71 -4.797486347110E-01  2.449085957844E-02  4.264795051894E-01
H72  4.797486347110E-01 -2.449085957844E-02 -4.264795051894E-01
H73 -2.011772430068E-01 -1.279854397647E-01  4.902485664203E-01
H74  2.011772430068E-01  1.279854397647E-01 -4.902485664203E-01
H75  4.437773075142E-02 -2.910217825057E-01  4.025510174805E-01
H76 -4.437773075142E-02  2.910217825057E-01 -4.025510174805E-01
H77 -4.345328265705E-01 -1.470048796292E-01  1.391543126182E-01
H78  4.345328265705E-01  1.470048796292E-01 -1.391543126182E-01
H79  1.247733868514E-01 -4.490566343926E-01  2.693019476392E-01
H80 -1.247733868514E-01  4.490566343926E-01 -2.693019476392E-01
H81 -3.305016459461E-01 -2.794237259003E-01  2.063988869255E-03
H82  3.305016459461E-01  2.794237259003E-01 -2.063988869255E-03
H83  2.361246020980E-01  4.279988408108E-01  1.331354747775E-01
H84 -2.361246020980E-01 -4.279988408108E-01 -1.331354747775E-01


#===END

data_OPT_STEP_7

_symmetry_space_group_name_H-M 'P 1'
_cell_length_a      6.35499880
_cell_length_b      8.00711735
_cell_length_c     16.77543215
_cell_angle_alpha  100.304050
_cell_angle_beta   91.058699
_cell_angle_gamma   95.981388

loop_
_atom_site_label
_atom_site_fract_x
_atom_site_fract_y
_atom_site_fract_z
C1  3.876635630223E-02  2.292071631151E-01  3.284121654159E-01
C2 -3.876635630223E-02 -2.292071631151E-01 -3.284121654159E-01
C3  8.480002092270E-02  3.452436192265E-01  3.991685813327E-01
C4 -8.480002092270E-02 -3.452436192265E-01 -3.991685813327E-01
C5  2.882694896035E-01  4.472710088289E-01  4.125965140067E-01
C6 -2.882694896035E-01 -4.472710088289E-01 -4.125965140067E-01
C7  4.366609196914E-01  4.341786426560E-01  3.538666438346E-01
C8 -4.366609196914E-01 -4.341786426560E-01 -3.538666438346E-01
C9  3.938939180976E-01  3.162474056888E-01  2.777595472050E-01
C10 -3.938939180976E-01 -3.162474056888E-01 -2.777595472050E-01
C11  1.907000167696E-01  2.085618634257E-01  2.653901796764E-01
C12 -1.907000167696E-01 -2.085618634257E-01 -2.653901796764E-01
C13  1.456094794203E-01  9.473909707234E-02  1.925217819947E-01
C14 -1.456094794203E-01 -9.473909707234E-02 -1.925217819947E-01
C15  2.974174200488E-01  7.141380083338E-02  1.312630068315E-01
C16 -2.974174200488E-01 -7.141380083338E-02 -1.312630068315E-01
C17  4.996628329655E-01  1.821958615362E-01  1.427667702235E-01
C18 -4.996628329655E-01 -1.821958615362E-01 -1.427667702235E-01
C19 -4.568581374133E-01  2.986516894724E-01  2.175394737677E-01
C20  4.568581374133E-01 -2.986516894724E-01 -2.175394737677E-01
C21  2.513823964560E-01 -4.052122873654E-02  5.694091805121E-02
C22 -2.513823964560E-01  4.052122873654E-02 -5.694091805121E-02
C23  3.993970099249E-01 -5.633563566415E-02 -5.495064610717E-03
C24 -3.993970099249E-01  5.633563566415E-02  5.495064610717E-03
C25 -3.544589380243E-01  1.707937442314E-01  7.990749927282E-02
C26  3.544589380243E-01 -1.707937442314E-01 -7.990749927282E-02
C27 -4.319299824723E-01 -9.974094402419E-02  3.060297420965E-01
C28  4.319299824723E-01  9.974094402419E-02 -3.060297420965E-01
C29 -3.901288466244E-01 -5.958419724405E-02  3.881637144611E-01
C30  3.901288466244E-01  5.958419724405E-02 -3.881637144611E-01
C31 -2.192744748602E-01 -1.322018281760E-01  4.248240932809E-01
C32  2.192744748602E-01  1.322018281760E-01 -4.248240932809E-01
C33 -8.594330762886E-02 -2.276496659006E-01  3.767816224998E-01
C34  8.594330762886E-02  2.276496659006E-01 -3.767816224998E-01
C35 -1.172157535530E-01 -2.631183710044E-01  2.893475716039E-01
C36  1.172157535530E-01  2.631183710044E-01 -2.893475716039E-01
C37 -2.893293407558E-01 -1.888376702552E-01  2.521637725223E-01
C38  2.893293407558E-01  1.888376702552E-01 -2.521637725223E-01
C39 -3.300476242152E-01 -2.351631802876E-01  1.686635524447E-01
C40  3.300476242152E-01  2.351631802876E-01 -1.686635524447E-01
C41 -1.889282504469E-01 -3.261710995103E-01  1.165897303848E-01
C42  1.889282504469E-01  3.261710995103E-01 -1.165897303848E-01
C43 -1.548513587474E-02 -3.989772762988E-01  1.539846661889E-01
C44  1.548513587474E-02  3.989772762988E-01 -1.539846661889E-01
C45  1.591820287201E-02 -3.622027323650E-01  2.400416318041E-01
C46 -1.591820287201E-02  3.622027323650E-01 -2.400416318041E-01
C47 -2.263406969483E-01 -3.707407335084E-01  3.227953862803E-02
C48  2.263406969483E-01  3.707407335084E-01 -3.227953862803E-02
C49 -8.636505531137E-02 -4.629417930885E-01 -1.884779518863E-02
C50  8.636505531137E-02  4.629417930885E-01  1.884779518863E-02
C51  1.206384527203E-01 -4.962761339246E-01  1.039775391132E-01
C52 -1.206384527203E-01  4.962761339246E-01 -1.039775391132E-01
H53 -1.005238106311E-01  1.445160190978E-01  3.215262210692E-01
H54  1.005238106311E-01 -1.445160190978E-01 -3.215262210692E-01
H55 -2.702237455143E-02  3.567433600701E-01  4.452143363797E-01
H56  2.702237455143E-02 -3.567433600701E-01 -4.452143363797E-01
H57  3.274918527513E-01 -4.788665115207E-01  4.707854930418E-01
H58 -3.274918527513E-01  4.788665115207E-01 -4.707854930418E-01
H59 -4.129959684042E-01 -4.938555527648E-01  3.643939080105E-01
H60  4.129959684042E-01  4.938555527648E-01 -3.643939080105E-01
H61 -3.411229786793E-03  3.033269706300E-02  1.813337251487E-01
H62  3.411229786793E-03 -3.033269706300E-02 -1.813337251487E-01
H63 -3.050532109520E-01  3.611801504559E-01  2.298673050683E-01
H64  3.050532109520E-01 -3.611801504559E-01 -2.298673050683E-01
H65  1.047601426813E-01 -1.142269960875E-01  4.779277318118E-02
H66 -1.047601426813E-01  1.142269960875E-01 -4.779277318118E-02
H67 -2.097880975502E-01  2.529953601635E-01  8.769733895179E-02
H68  2.097880975502E-01 -2.529953601635E-01 -8.769733895179E-02
H69  4.203876505741E-01 -8.254004512502E-02  2.822370095211E-01
H70 -4.203876505741E-01  8.254004512502E-02 -2.822370095211E-01
H71 -4.833270688407E-01  2.207393106320E-02  4.256253082586E-01
H72  4.833270688407E-01 -2.207393106320E-02 -4.256253082586E-01
H73 -2.000612055279E-01 -1.159265565827E-01  4.892557514435E-01
H74  2.000612055279E-01  1.159265565827E-01 -4.892557514435E-01
H75  4.499976878595E-02 -2.763294396725E-01  4.020227219056E-01
H76 -4.499976878595E-02  2.763294396725E-01 -4.020227219056E-01
H77 -4.722463853113E-01 -2.117536661964E-01  1.442825149085E-01
H78  4.722463853113E-01  2.117536661964E-01 -1.442825149085E-01
H79  1.432705182896E-01 -4.098653402621E-01  2.667070848763E-01
H80 -1.432705182896E-01  4.098653402621E-01 -2.667070848763E-01
H81 -3.656572624985E-01 -3.416517743450E-01  6.933149613152E-03
H82  3.656572624985E-01  3.416517743450E-01 -6.933149613152E-03
H83  2.503165042663E-01  4.586762274541E-01  1.306432118734E-01
H84 -2.503165042663E-01 -4.586762274541E-01 -1.306432118734E-01


#===END

data_OPT_STEP_8

_symmetry_space_group_name_H-M 'P 1'
_cell_length_a      6.38383509
_cell_length_b      7.98619766
_cell_length_c     16.76991306
_cell_angle_alpha  100.144042
_cell_angle_beta   91.142349
_cell_angle_gamma   95.477509

loop_
_atom_site_label
_atom_site_fract_x
_atom_site_fract_y
_atom_site_fract_z
C1  4.027372605872E-02  2.303735593863E-01  3.282665760140E-01
C2 -4.027372605872E-02 -2.303735593863E-01 -3.282665760140E-01
C3  8.735610640066E-02  3.427354399020E-01  3.997468185773E-01
C4 -8.735610640066E-02 -3.427354399020E-01 -3.997468185773E-01
C5  2.892622102199E-01  4.442027822356E-01  4.130639218158E-01
C6 -2.892622102199E-01 -4.442027822356E-01 -4.130639218158E-01
C7  4.377076040914E-01  4.294381779426E-01  3.546618679668E-01
C8 -4.377076040914E-01 -4.294381779426E-01 -3.546618679668E-01
C9  3.948124913332E-01  3.132962982678E-01  2.782629720728E-01
C10 -3.948124913332E-01 -3.132962982678E-01 -2.782629720728E-01
C11  1.915927192452E-01  2.091468913619E-01  2.652783972819E-01
C12 -1.915927192452E-01 -2.091468913619E-01 -2.652783972819E-01
C13  1.458589876741E-01  9.809354436141E-02  1.918611583228E-01
C14 -1.458589876741E-01 -9.809354436141E-02 -1.918611583228E-01
C15  2.969953318114E-01  7.437410328283E-02  1.305970322851E-01
C16 -2.969953318114E-01 -7.437410328283E-02 -1.305970322851E-01
C17 -4.997251806902E-01  1.796501445419E-01  1.432422166525E-01
C18  4.997251806902E-01 -1.796501445419E-01 -1.432422166525E-01
C19 -4.572499982089E-01  2.966881194800E-01  2.177722765902E-01
C20  4.572499982089E-01 -2.966881194800E-01 -2.177722765902E-01
C21  2.510785862041E-01 -3.632831969190E-02  5.609254050146E-02
C22 -2.510785862041E-01  3.632831969190E-02 -5.609254050146E-02
C23  3.990001487869E-01 -5.378758276721E-02 -6.024589991901E-03
C24 -3.990001487869E-01  5.378758276721E-02  6.024589991901E-03
C25 -3.539411324679E-01  1.665696923106E-01  8.073913703336E-02
C26  3.539411324679E-01 -1.665696923106E-01 -8.073913703336E-02
C27 -4.379436372233E-01 -1.073103850786E-01  3.062878543268E-01
C28  4.379436372233E-01  1.073103850786E-01 -3.062878543268E-01
C29 -3.935449144387E-01 -6.295495027791E-02  3.881212395402E-01
C30  3.935449144387E-01  6.295495027791E-02 -3.881212395402E-01
C31 -2.149150379467E-01 -1.235654471226E-01  4.240053240362E-01
C32  2.149150379467E-01  1.235654471226E-01 -4.240053240362E-01
C33 -8.171050747324E-02 -2.193287473864E-01  3.760159284188E-01
C34  8.171050747324E-02  2.193287473864E-01 -3.760159284188E-01
C35 -1.133626595648E-01 -2.560942327133E-01  2.887097994804E-01
C36  1.133626595648E-01  2.560942327133E-01 -2.887097994804E-01
C37 -2.952842376638E-01 -1.966732511247E-01  2.525084503179E-01
C38  2.952842376638E-01  1.966732511247E-01 -2.525084503179E-01
C39 -3.368690331487E-01 -2.446842222721E-01  1.691673406484E-01
C40  3.368690331487E-01  2.446842222721E-01 -1.691673406484E-01
C41 -1.934301114562E-01 -3.325132398028E-01  1.169325155701E-01
C42  1.934301114562E-01  3.325132398028E-01 -1.169325155701E-01
C43 -1.102163833925E-02 -3.916591934272E-01  1.534194564181E-01
C44  1.102163833925E-02  3.916591934272E-01 -1.534194564181E-01
C45  2.177643756404E-02 -3.523085661062E-01  2.392719099700E-01
C46 -2.177643756404E-02  3.523085661062E-01 -2.392719099700E-01
C47 -2.317863853105E-01 -3.787328508768E-01  3.275983074873E-02
C48  2.317863853105E-01  3.787328508768E-01 -3.275983074873E-02
C49 -9.072205803883E-02 -4.694951464441E-01 -1.841789050645E-02
C50  9.072205803883E-02  4.694951464441E-01  1.841789050645E-02
C51  1.255829590797E-01 -4.884011400049E-01  1.034340196062E-01
C52 -1.255829590797E-01  4.884011400049E-01 -1.034340196062E-01
H53 -9.940526223836E-02  1.478079257538E-01  3.209305054342E-01
H54  9.940526223836E-02 -1.478079257538E-01 -3.209305054342E-01
H55 -2.459618520833E-02  3.545703167304E-01  4.459749229959E-01
H56  2.459618520833E-02 -3.545703167304E-01 -4.459749229959E-01
H57  3.276507345221E-01 -4.803554016451E-01  4.710907358225E-01
H58 -3.276507345221E-01  4.803554016451E-01 -4.710907358225E-01
H59 -4.128206556336E-01 -4.975561511805E-01  3.648884177416E-01
H60  4.128206556336E-01  4.975561511805E-01 -3.648884177416E-01
H61 -4.798931132232E-03  3.777643315944E-02  1.797258446332E-01
H62  4.798931132232E-03 -3.777643315944E-02 -1.797258446332E-01
H63 -3.084971537921E-01  3.637747258021E-01  2.289364678439E-01
H64  3.084971537921E-01 -3.637747258021E-01 -2.289364678439E-01
H65  1.041098216892E-01 -1.085115517456E-01  4.660310736174E-02
H66 -1.041098216892E-01  1.085115517456E-01 -4.660310736174E-02
H67 -2.103037191149E-01  2.498590876226E-01  8.823510115121E-02
H68  2.103037191149E-01 -2.498590876226E-01 -8.823510115121E-02
H69  4.128592245544E-01 -9.160504626449E-02  2.824825650166E-01
H70 -4.128592245544E-01  9.160504626449E-02 -2.824825650166E-01
H71 -4.881544917626E-01  1.768986317825E-02  4.257330077425E-01
H72  4.881544917626E-01 -1.768986317825E-02 -4.257330077425E-01
H73 -1.947389074111E-01 -1.054669115416E-01  4.885470502915E-01
H74  1.947389074111E-01  1.054669115416E-01 -4.885470502915E-01
H75  4.704979810156E-02 -2.724057607250E-01  4.014923685196E-01
H76 -4.704979810156E-02  2.724057607250E-01 -4.014923685196E-01
H77 -4.820337706527E-01 -2.248951411583E-01  1.449259767005E-01
H78  4.820337706527E-01  2.248951411583E-01 -1.449259767005E-01
H79  1.480990506900E-01 -4.022297452821E-01  2.661731877185E-01
H80 -1.480990506900E-01  4.022297452821E-01 -2.661731877185E-01
H81 -3.722466396438E-01 -3.504116509819E-01  7.356559948918E-03
H82  3.722466396438E-01  3.504116509819E-01 -7.356559948918E-03
H83  2.536675690815E-01  4.633902928242E-01  1.304281702419E-01
H84 -2.536675690815E-01 -4.633902928242E-01 -1.304281702419E-01


#===END

data_OPT_STEP_9

_symmetry_space_group_name_H-M 'P 1'
_cell_length_a      6.28502847
_cell_length_b      8.05224746
_cell_length_c     16.86217391
_cell_angle_alpha  100.521982
_cell_angle_beta   91.398539
_cell_angle_gamma   95.402057

loop_
_atom_site_label
_atom_site_fract_x
_atom_site_fract_y
_atom_site_fract_z
C1  3.837736922894E-02  2.281829200139E-01  3.277880204847E-01
C2 -3.837736922894E-02 -2.281829200139E-01 -3.277880204847E-01
C3  8.702936487008E-02  3.412181941919E-01  3.988586706643E-01
C4 -8.702936487008E-02 -3.412181941919E-01 -3.988586706643E-01
C5  2.915620719226E-01  4.432080928157E-01  4.117696922578E-01
C6 -2.915620719226E-01 -4.432080928157E-01 -4.117696922578E-01
C7  4.415085159657E-01  4.284895933525E-01  3.535106675986E-01
C8 -4.415085159657E-01 -4.284895933525E-01 -3.535106675986E-01
C9  3.977912228481E-01  3.103205759747E-01  2.778520624863E-01
C10 -3.977912228481E-01 -3.103205759747E-01 -2.778520624863E-01
C11  1.922289917011E-01  2.047909160247E-01  2.653901649167E-01
C12 -1.922289917011E-01 -2.047909160247E-01 -2.653901649167E-01
C13  1.458010218832E-01  9.191388396705E-02  1.926134837434E-01
C14 -1.458010218832E-01 -9.191388396705E-02 -1.926134837434E-01
C15  2.973082606497E-01  7.082412761228E-02  1.308964821735E-01
C16 -2.973082606497E-01 -7.082412761228E-02 -1.308964821735E-01
C17 -4.979275629958E-01  1.786554833035E-01  1.429016802797E-01
C18  4.979275629958E-01 -1.786554833035E-01 -1.429016802797E-01
C19 -4.555870586174E-01  2.995649857938E-01  2.163058852338E-01
C20  4.555870586174E-01 -2.995649857938E-01 -2.163058852338E-01
C21  2.510966599418E-01 -4.206818374856E-02  5.721793276884E-02
C22 -2.510966599418E-01  4.206818374856E-02 -5.721793276884E-02
C23  3.986706748277E-01 -5.567149218552E-02 -5.571816497016E-03
C24 -3.986706748277E-01  5.567149218552E-02  5.571816497016E-03
C25 -3.524747711921E-01  1.690601714958E-01  7.991783680304E-02
C26  3.524747711921E-01 -1.690601714958E-01 -7.991783680304E-02
C27 -4.253165186269E-01 -9.070709526294E-02  3.059999982480E-01
C28  4.253165186269E-01  9.070709526294E-02 -3.059999982480E-01
C29 -3.830662788031E-01 -5.470618500625E-02  3.881361533920E-01
C30  3.830662788031E-01  5.470618500625E-02 -3.881361533920E-01
C31 -2.082393431945E-01 -1.265177323414E-01  4.239758723187E-01
C32  2.082393431945E-01  1.265177323414E-01 -4.239758723187E-01
C33 -7.654426791595E-02 -2.249201404831E-01  3.755360537753E-01
C34  7.654426791595E-02  2.249201404831E-01 -3.755360537753E-01
C35 -1.092263742189E-01 -2.584336942756E-01  2.884052508949E-01
C36  1.092263742189E-01  2.584336942756E-01 -2.884052508949E-01
C37 -2.905270599274E-01 -1.923166472510E-01  2.525147983807E-01
C38  2.905270599274E-01  1.923166472510E-01 -2.525147983807E-01
C39 -3.294201955480E-01 -2.318036744751E-01  1.689510334767E-01
C40  3.294201955480E-01  2.318036744751E-01 -1.689510334767E-01
C41 -1.890954911625E-01 -3.257099229387E-01  1.167712234263E-01
C42  1.890954911625E-01  3.257099229387E-01 -1.167712234263E-01
C43 -9.561072853492E-03 -3.949423398911E-01  1.532223467641E-01
C44  9.561072853492E-03  3.949423398911E-01 -1.532223467641E-01
C45  2.074661242723E-02 -3.632647790604E-01  2.392553911306E-01
C46 -2.074661242723E-02  3.632647790604E-01 -2.392553911306E-01
C47 -2.241211279225E-01 -3.630663187428E-01  3.230880116307E-02
C48  2.241211279225E-01  3.630663187428E-01 -3.230880116307E-02
C49 -8.866288086667E-02 -4.636661707531E-01 -1.843656935694E-02
C50  8.866288086667E-02  4.636661707531E-01  1.843656935694E-02
C51  1.208797083264E-01  4.981694121088E-01  1.036603981896E-01
C52 -1.208797083264E-01 -4.981694121088E-01 -1.036603981896E-01
H53 -1.059417459399E-01  1.452899543160E-01  3.200413142865E-01
H54  1.059417459399E-01 -1.452899543160E-01 -3.200413142865E-01
H55 -2.811178920167E-02  3.538578101763E-01  4.460429246565E-01
H56  2.811178920167E-02 -3.538578101763E-01 -4.460429246565E-01
H57  3.309016273946E-01 -4.764412464205E-01  4.699505061609E-01
H58 -3.309016273946E-01  4.764412464205E-01 -4.699505061609E-01
H59 -4.078993907795E-01 -4.891280498082E-01  3.617960349678E-01
H60  4.078993907795E-01  4.891280498082E-01 -3.617960349678E-01
H61 -1.513779173542E-02  4.121475954185E-02  1.776837743152E-01
H62  1.513779173542E-02 -4.121475954185E-02 -1.776837743152E-01
H63 -3.150809934365E-01  3.914403881672E-01  2.218068815247E-01
H64  3.150809934365E-01 -3.914403881672E-01 -2.218068815247E-01
H65  9.955440134897E-02 -1.160151983638E-01  4.765163691136E-02
H66 -9.955440134897E-02  1.160151983638E-01 -4.765163691136E-02
H67 -2.086496300059E-01  2.622568984298E-01  8.552252521203E-02
H68  2.086496300059E-01 -2.622568984298E-01 -8.552252521203E-02
H69  4.261431529835E-01 -6.692321885724E-02  2.818366791448E-01
H70 -4.261431529835E-01  6.692321885724E-02 -2.818366791448E-01
H71 -4.788516955559E-01  2.894306192153E-02  4.265930891972E-01
H72  4.788516955559E-01 -2.894306192153E-02 -4.265930891972E-01
H73 -1.927418064152E-01 -1.184355862713E-01  4.902201578637E-01
H74  1.927418064152E-01  1.184355862713E-01 -4.902201578637E-01
H75  5.019011070326E-02 -2.911284228791E-01  4.007767652736E-01
H76 -5.019011070326E-02  2.911284228791E-01 -4.007767652736E-01
H77 -4.818030426555E-01 -2.152518839932E-01  1.449995422523E-01
H78  4.818030426555E-01  2.152518839932E-01 -1.449995422523E-01
H79  1.394161609086E-01 -4.319419010658E-01  2.672672799459E-01
H80 -1.394161609086E-01  4.319419010658E-01 -2.672672799459E-01
H81 -3.649947661276E-01 -3.274446305908E-01  6.355346296542E-03
H82  3.649947661276E-01  3.274446305908E-01 -6.355346296542E-03
H83  2.410101211421E-01  4.307202233033E-01  1.319793111136E-01
H84 -2.410101211421E-01 -4.307202233033E-01 -1.319793111136E-01


#===END

data_OPT_STEP_10

_symmetry_space_group_name_H-M 'P 1'
_cell_length_a      6.37187043
_cell_length_b      7.99871676
_cell_length_c     16.82697860
_cell_angle_alpha  100.235126
_cell_angle_beta   91.113441
_cell_angle_gamma   96.600251

loop_
_atom_site_label
_atom_site_fract_x
_atom_site_fract_y
_atom_site_fract_z
C1  3.881143735576E-02  2.305756356898E-01  3.259751482975E-01
C2 -3.881143735576E-02 -2.305756356898E-01 -3.259751482975E-01
C3  8.984700227757E-02  3.399265629093E-01  3.981618568385E-01
C4 -8.984700227757E-02 -3.399265629093E-01 -3.981618568385E-01
C5  2.944437161901E-01  4.417010765932E-01  4.117725850368E-01
C6 -2.944437161901E-01 -4.417010765932E-01 -4.117725850368E-01
C7  4.446404110746E-01  4.261384306568E-01  3.541361592843E-01
C8 -4.446404110746E-01 -4.261384306568E-01 -3.541361592843E-01
C9  3.988905907737E-01  3.111228019019E-01  2.775140192430E-01
C10 -3.988905907737E-01 -3.111228019019E-01 -2.775140192430E-01
C11  1.934091257479E-01  2.052251319492E-01  2.644331429027E-01
C12 -1.934091257479E-01 -2.052251319492E-01 -2.644331429027E-01
C13  1.462763788181E-01  9.224983125788E-02  1.913612824884E-01
C14 -1.462763788181E-01 -9.224983125788E-02 -1.913612824884E-01
C15  2.965350110302E-01  7.364575732896E-02  1.295144386516E-01
C16 -2.965350110302E-01 -7.364575732896E-02 -1.295144386516E-01
C17 -4.981137209799E-01  1.806665779727E-01  1.425668729816E-01
C18  4.981137209799E-01 -1.806665779727E-01 -1.425668729816E-01
C19 -4.552592493830E-01  3.014199621888E-01  2.162407325843E-01
C20  4.552592493830E-01 -3.014199621888E-01 -2.162407325843E-01
C21  2.494454259115E-01 -3.871973274914E-02  5.542264122147E-02
C22 -2.494454259115E-01  3.871973274914E-02 -5.542264122147E-02
C23  3.977542630302E-01 -5.410383669362E-02 -6.397627424724E-03
C24 -3.977542630302E-01  5.410383669362E-02  6.397627424724E-03
C25 -3.494293297030E-01  1.643538150711E-01  8.180899928062E-02
C26  3.494293297030E-01 -1.643538150711E-01 -8.180899928062E-02
C27 -4.349840090240E-01 -1.045248101471E-01  3.045519974743E-01
C28  4.349840090240E-01  1.045248101471E-01 -3.045519974743E-01
C29 -3.940279614046E-01 -6.773588816504E-02  3.869551576703E-01
C30  3.940279614046E-01  6.773588816504E-02 -3.869551576703E-01
C31 -2.231562671030E-01 -1.391158942607E-01  4.237320378967E-01
C32  2.231562671030E-01  1.391158942607E-01 -4.237320378967E-01
C33 -8.744770108298E-02 -2.285392864805E-01  3.753461667158E-01
C34  8.744770108298E-02  2.285392864805E-01 -3.753461667158E-01
C35 -1.196514492758E-01 -2.656986668439E-01  2.883026356271E-01
C36  1.196514492758E-01  2.656986668439E-01 -2.883026356271E-01
C37 -3.028936841803E-01 -2.082010537901E-01  2.518283185400E-01
C38  3.028936841803E-01  2.082010537901E-01 -2.518283185400E-01
C39 -3.417467515947E-01 -2.517786326768E-01  1.682392513417E-01
C40  3.417467515947E-01  2.517786326768E-01 -1.682392513417E-01
C41 -1.992160263288E-01 -3.407992013452E-01  1.165654414372E-01
C42  1.992160263288E-01  3.407992013452E-01 -1.165654414372E-01
C43 -1.250649920094E-02 -3.933881223916E-01  1.531598102848E-01
C44  1.250649920094E-02  3.933881223916E-01 -1.531598102848E-01
C45  1.975033559533E-02 -3.545166802946E-01  2.389472678594E-01
C46 -1.975033559533E-02  3.545166802946E-01 -2.389472678594E-01
C47 -2.340969568758E-01 -3.825357520394E-01  3.205021632740E-02
C48  2.340969568758E-01  3.825357520394E-01 -3.205021632740E-02
C49 -9.306457018653E-02 -4.732399603195E-01 -1.843410455470E-02
C50  9.306457018653E-02  4.732399603195E-01  1.843410455470E-02
C51  1.291709824550E-01 -4.816398731034E-01  1.032622191752E-01
C52 -1.291709824550E-01  4.816398731034E-01 -1.032622191752E-01
H53 -1.092672578190E-01  1.513863756785E-01  3.165384159346E-01
H54  1.092672578190E-01 -1.513863756785E-01 -3.165384159346E-01
H55 -2.464864193115E-02  3.489402553807E-01  4.465545032601E-01
H56  2.464864193115E-02 -3.489402553807E-01 -4.465545032601E-01
H57  3.346030865538E-01 -4.754883728703E-01  4.704627584094E-01
H58 -3.346030865538E-01  4.754883728703E-01 -4.704627584094E-01
H59 -4.022032549101E-01 -4.915970702592E-01  3.631212726355E-01
H60  4.022032549101E-01  4.915970702592E-01 -3.631212726355E-01
H61 -1.632604010179E-02  4.004948749439E-02  1.759246144886E-01
H62  1.632604010179E-02 -4.004948749439E-02 -1.759246144886E-01
H63 -3.174322879944E-01  4.023436286872E-01  2.202769490945E-01
H64  3.174322879944E-01 -4.023436286872E-01 -2.202769490945E-01
H65  9.637388279508E-02 -1.147599628265E-01  4.547452695773E-02
H66 -9.637388279508E-02  1.147599628265E-01 -4.547452695773E-02
H67 -1.990666131035E-01  2.489982755487E-01  9.039180439728E-02
H68  1.990666131035E-01 -2.489982755487E-01 -9.039180439728E-02
H69  4.298178675473E-01 -6.287740783158E-02  2.783464715578E-01
H70 -4.298178675473E-01  6.287740783158E-02 -2.783464715578E-01
H71 -4.870987054682E-01  1.978313619567E-02  4.256461214534E-01
H72  4.870987054682E-01 -1.978313619567E-02 -4.256461214534E-01
H73 -2.073584527169E-01 -1.279398397111E-01  4.906879635649E-01
H74  2.073584527169E-01  1.279398397111E-01 -4.906879635649E-01
H75  4.015182617774E-02 -2.910408999556E-01  4.009865303110E-01
H76 -4.015182617774E-02  2.910408999556E-01 -4.009865303110E-01
H77 -4.947586292896E-01 -2.382151922480E-01  1.434603859908E-01
H78  4.947586292896E-01  2.382151922480E-01 -1.434603859908E-01
H79  1.460634396152E-01 -4.095065762793E-01  2.669419358334E-01
H80 -1.460634396152E-01  4.095065762793E-01 -2.669419358334E-01
H81 -3.760343157908E-01 -3.500133950105E-01  5.155981003496E-03
H82  3.760343157908E-01  3.500133950105E-01 -5.155981003496E-03
H83  2.601331545398E-01  4.693372923881E-01  1.314328760685E-01
H84 -2.601331545398E-01 -4.693372923881E-01 -1.314328760685E-01


#===END

data_OPT_STEP_11

_symmetry_space_group_name_H-M 'P 1'
_cell_length_a      6.31688615
_cell_length_b      7.93307327
_cell_length_c     16.75934104
_cell_angle_alpha   99.536982
_cell_angle_beta   91.929071
_cell_angle_gamma   94.964595

loop_
_atom_site_label
_atom_site_fract_x
_atom_site_fract_y
_atom_site_fract_z
C1  3.223527228084E-02  2.301898728760E-01  3.248714304811E-01
C2 -3.223527228084E-02 -2.301898728760E-01 -3.248714304811E-01
C3  8.385644813424E-02  3.349668263132E-01  3.980671400099E-01
C4 -8.385644813424E-02 -3.349668263132E-01 -3.980671400099E-01
C5  2.892048710297E-01  4.335346569789E-01  4.126653693233E-01
C6 -2.892048710297E-01 -4.335346569789E-01 -4.126653693233E-01
C7  4.417152744720E-01  4.155069212234E-01  3.558910610604E-01
C8 -4.417152744720E-01 -4.155069212234E-01 -3.558910610604E-01
C9  3.960240778708E-01  3.042299683387E-01  2.784882802869E-01
C10 -3.960240778708E-01 -3.042299683387E-01 -2.784882802869E-01
C11  1.878986956338E-01  2.049496852297E-01  2.635851041843E-01
C12 -1.878986956338E-01 -2.049496852297E-01 -2.635851041843E-01
C13  1.387384957131E-01  9.890907504289E-02  1.888902816493E-01
C14 -1.387384957131E-01 -9.890907504289E-02 -1.888902816493E-01
C15  2.919377538899E-01  7.736006326141E-02  1.280686546782E-01
C16 -2.919377538899E-01 -7.736006326141E-02 -1.280686546782E-01
C17 -4.991468583384E-01  1.761295568325E-01  1.434088007913E-01
C18  4.991468583384E-01 -1.761295568325E-01 -1.434088007913E-01
C19 -4.537124840349E-01  2.884946941681E-01  2.190320898603E-01
C20  4.537124840349E-01 -2.884946941681E-01 -2.190320898603E-01
C21  2.437689257080E-01 -2.949675991821E-02  5.269127125975E-02
C22 -2.437689257080E-01  2.949675991821E-02 -5.269127125975E-02
C23  3.959590486692E-01 -4.995269707113E-02 -7.546357769339E-03
C24 -3.959590486692E-01  4.995269707113E-02  7.546357769339E-03
C25 -3.475011476620E-01  1.563677627175E-01  8.382908868228E-02
C26  3.475011476620E-01 -1.563677627175E-01 -8.382908868228E-02
C27 -4.415336685328E-01 -1.024668799413E-01  3.035323493907E-01
C28  4.415336685328E-01  1.024668799413E-01 -3.035323493907E-01
C29 -3.984128443133E-01 -6.577598310435E-02  3.860742142563E-01
C30  3.984128443133E-01  6.577598310435E-02 -3.860742142563E-01
C31 -2.169893213483E-01 -1.287953924863E-01  4.227446505025E-01
C32  2.169893213483E-01  1.287953924863E-01 -4.227446505025E-01
C33 -8.009229677512E-02 -2.207240914082E-01  3.749082134564E-01
C34  8.009229677512E-02  2.207240914082E-01 -3.749082134564E-01
C35 -1.135473309897E-01 -2.577824611151E-01  2.877147014182E-01
C36  1.135473309897E-01  2.577824611151E-01 -2.877147014182E-01
C37 -3.017033053019E-01 -1.993392947028E-01  2.506359195599E-01
C38  3.017033053019E-01  1.993392947028E-01 -2.506359195599E-01
C39 -3.406719093369E-01 -2.400794878755E-01  1.667119620142E-01
C40  3.406719093369E-01  2.400794878755E-01 -1.667119620142E-01
C41 -1.980624569109E-01 -3.336173775197E-01  1.156879093549E-01
C42  1.980624569109E-01  3.336173775197E-01 -1.156879093549E-01
C43 -8.643570919678E-03 -3.904606904166E-01  1.530955922017E-01
C44  8.643570919678E-03  3.904606904166E-01 -1.530955922017E-01
C45  2.906987070196E-02 -3.464520871288E-01  2.387081188113E-01
C46 -2.906987070196E-02  3.464520871288E-01 -2.387081188113E-01
C47 -2.354164826269E-01 -3.760311814917E-01  3.104177439114E-02
C48  2.354164826269E-01  3.760311814917E-01 -3.104177439114E-02
C49 -9.359304192342E-02 -4.699673337060E-01 -1.889706662066E-02
C50  9.359304192342E-02  4.699673337060E-01  1.889706662066E-02
C51  1.322085472355E-01 -4.841798463182E-01  1.038650266363E-01
C52 -1.322085472355E-01  4.841798463182E-01 -1.038650266363E-01
H53 -1.200088333863E-01  1.568807382037E-01  3.136010238951E-01
H54  1.200088333863E-01 -1.568807382037E-01 -3.136010238951E-01
H55 -3.271120793850E-02  3.442067288945E-01  4.466306885968E-01
H56  3.271120793850E-02 -3.442067288945E-01 -4.466306885968E-01
H57  3.279403803252E-01 -4.806086692316E-01  4.712823976606E-01
H58 -3.279403803252E-01  4.806086692316E-01 -4.712823976606E-01
H59 -4.014301628622E-01  4.930969055087E-01  3.663059598581E-01
H60  4.014301628622E-01 -4.930969055087E-01 -3.663059598581E-01
H61 -2.611101455155E-02  4.872631794175E-02  1.725470118393E-01
H62  2.611101455155E-02 -4.872631794175E-02 -1.725470118393E-01
H63 -3.090033880589E-01  3.785916844240E-01  2.260465148714E-01
H64  3.090033880589E-01 -3.785916844240E-01 -2.260465148714E-01
H65  8.684417793783E-02 -1.009033707937E-01  4.114642946392E-02
H66 -8.684417793783E-02  1.009033707937E-01 -4.114642946392E-02
H67 -1.915330215675E-01  2.323888111247E-01  9.495216735578E-02
H68  1.915330215675E-01 -2.323888111247E-01 -9.495216735578E-02
H69  4.248253162248E-01 -5.163063163671E-02  2.762078227849E-01
H70 -4.248253162248E-01  5.163063163671E-02 -2.762078227849E-01
H71 -4.960660188562E-01  1.903676958763E-02  4.254284978118E-01
H72  4.960660188562E-01 -1.903676958763E-02 -4.254284978118E-01
H73 -1.925890053113E-01 -1.063976738343E-01  4.895853853756E-01
H74  1.925890053113E-01  1.063976738343E-01 -4.895853853756E-01
H75  4.924540453074E-02 -2.861714956660E-01  4.013730362346E-01
H76 -4.924540453074E-02  2.861714956660E-01 -4.013730362346E-01
H77 -4.912668958475E-01 -2.161348617916E-01  1.406843135935E-01
H78  4.912668958475E-01  2.161348617916E-01 -1.406843135935E-01
H79  1.626467507529E-01 -3.972602837735E-01  2.668611227086E-01
H80 -1.626467507529E-01  3.972602837735E-01 -2.668611227086E-01
H81 -3.772564430013E-01 -3.361300832616E-01  3.091839956507E-03
H82  3.772564430013E-01  3.361300832616E-01 -3.091839956507E-03
H83  2.675317280317E-01  4.665843517589E-01  1.325555623698E-01
H84 -2.675317280317E-01 -4.665843517589E-01 -1.325555623698E-01


#===END

data_OPT_STEP_12

_symmetry_space_group_name_H-M 'P 1'
_cell_length_a      6.31786721
_cell_length_b      7.92827262
_cell_length_c     16.76157250
_cell_angle_alpha   99.674919
_cell_angle_beta   91.240239
_cell_angle_gamma   97.042733

loop_
_atom_site_label
_atom_site_fract_x
_atom_site_fract_y
_atom_site_fract_z
C1  3.032613072129E-02  2.253169439746E-01  3.252089809156E-01
C2 -3.032613072129E-02 -2.253169439746E-01 -3.252089809156E-01
C3  8.322998957972E-02  3.308381672576E-01  3.985339055479E-01
C4 -8.322998957972E-02 -3.308381672576E-01 -3.985339055479E-01
C5  2.896873812848E-01  4.348431420561E-01  4.126469988384E-01
C6 -2.896873812848E-01 -4.348431420561E-01 -4.126469988384E-01
C7  4.400107846671E-01  4.250539845680E-01  3.543448973137E-01
C8 -4.400107846671E-01 -4.250539845680E-01 -3.543448973137E-01
C9  3.921236627807E-01  3.148157332724E-01  2.763364537958E-01
C10 -3.921236627807E-01 -3.148157332724E-01 -2.763364537958E-01
C11  1.849769724201E-01  2.061159347444E-01  2.629376150891E-01
C12 -1.849769724201E-01 -2.061159347444E-01 -2.629376150891E-01
C13  1.368436734253E-01  9.470667061629E-02  1.892054008721E-01
C14 -1.368436734253E-01 -9.470667061629E-02 -1.892054008721E-01
C15  2.906585803231E-01  7.573696971148E-02  1.281362495533E-01
C16 -2.906585803231E-01 -7.573696971148E-02 -1.281362495533E-01
C17  4.966214051969E-01  1.875960144689E-01  1.409693763979E-01
C18 -4.966214051969E-01 -1.875960144689E-01 -1.409693763979E-01
C19 -4.597633135224E-01  3.065001578636E-01  2.153680443953E-01
C20  4.597633135224E-01 -3.065001578636E-01 -2.153680443953E-01
C21  2.451005980160E-01 -3.950924279035E-02  5.450314835567E-02
C22 -2.451005980160E-01  3.950924279035E-02 -5.450314835567E-02
C23  3.979464410581E-01 -5.740013368979E-02 -6.020175821826E-03
C24 -3.979464410581E-01  5.740013368979E-02  6.020175821826E-03
C25 -3.534263893488E-01  1.746767690643E-01  7.994416700120E-02
C26  3.534263893488E-01 -1.746767690643E-01 -7.994416700120E-02
C27 -4.491489783883E-01 -1.182567126195E-01  3.038344292147E-01
C28  4.491489783883E-01  1.182567126195E-01 -3.038344292147E-01
C29 -4.024195295843E-01 -7.259861339134E-02  3.858306670034E-01
C30  4.024195295843E-01  7.259861339134E-02 -3.858306670034E-01
C31 -2.208204260437E-01 -1.295583757365E-01  4.225672391058E-01
C32  2.208204260437E-01  1.295583757365E-01 -4.225672391058E-01
C33 -8.449152934979E-02 -2.206817363488E-01  3.750634109084E-01
C34  8.449152934979E-02  2.206817363488E-01 -3.750634109084E-01
C35 -1.184607450676E-01 -2.621738188591E-01  2.880227053830E-01
C36  1.184607450676E-01  2.621738188591E-01 -2.880227053830E-01
C37 -3.082712965448E-01 -2.117819924940E-01  2.510902762688E-01
C38  3.082712965448E-01  2.117819924940E-01 -2.510902762688E-01
C39 -3.494694874185E-01 -2.585535182229E-01  1.675159103167E-01
C40  3.494694874185E-01  2.585535182229E-01 -1.675159103167E-01
C41 -2.032571589348E-01 -3.443406672836E-01  1.162158987260E-01
C42  2.032571589348E-01  3.443406672836E-01 -1.162158987260E-01
C43 -1.077815114989E-02 -3.913612289032E-01  1.532556776614E-01
C44  1.077815114989E-02  3.913612289032E-01 -1.532556776614E-01
C45  2.352554943297E-02 -3.498889233071E-01  2.391814263623E-01
C46 -2.352554943297E-02  3.498889233071E-01 -2.391814263623E-01
C47 -2.410474920519E-01 -3.895723188669E-01  3.168911375022E-02
C48  2.410474920519E-01  3.895723188669E-01 -3.168911375022E-02
C49 -9.521929656250E-02 -4.749670388014E-01 -1.867734548332E-02
C50  9.521929656250E-02  4.749670388014E-01  1.867734548332E-02
C51  1.310756080968E-01 -4.812501459287E-01  1.038810050147E-01
C52 -1.310756080968E-01  4.812501459287E-01 -1.038810050147E-01
H53 -1.243571651211E-01  1.499595753127E-01  3.137788229531E-01
H54  1.243571651211E-01 -1.499595753127E-01 -3.137788229531E-01
H55 -3.348965177063E-02  3.368001624209E-01  4.476685029265E-01
H56  3.348965177063E-02 -3.368001624209E-01 -4.476685029265E-01
H57  3.299345747648E-01 -4.796543306257E-01  4.718302587543E-01
H58 -3.299345747648E-01  4.796543306257E-01 -4.718302587543E-01
H59 -4.014731084308E-01 -4.945607599061E-01  3.647239811408E-01
H60  4.014731084308E-01  4.945607599061E-01 -3.647239811408E-01
H61 -2.332038715671E-02  2.954992408333E-02  1.759124157149E-01
H62  2.332038715671E-02 -2.954992408333E-02 -1.759124157149E-01
H63 -3.122248238477E-01  3.972823688876E-01  2.227758658424E-01
H64  3.122248238477E-01 -3.972823688876E-01 -2.227758658424E-01
H65  8.874447594276E-02 -1.183368641616E-01  4.419019053190E-02
H66 -8.874447594276E-02  1.183368641616E-01 -4.419019053190E-02
H67 -1.993226442292E-01  2.603949550118E-01  8.917816109659E-02
H68  1.993226442292E-01 -2.603949550118E-01 -8.917816109659E-02
H69  4.134610867642E-01 -7.572211813259E-02  2.766712135312E-01
H70 -4.134610867642E-01  7.572211813259E-02 -2.766712135312E-01
H71  4.998858884955E-01  1.165552772538E-02  4.250738802773E-01
H72 -4.998858884955E-01 -1.165552772538E-02 -4.250738802773E-01
H73 -1.944583742608E-01 -1.018987793499E-01  4.893462622892E-01
H74  1.944583742608E-01  1.018987793499E-01 -4.893462622892E-01
H75  4.782336502386E-02 -2.775329214789E-01  4.016303125089E-01
H76 -4.782336502386E-02  2.775329214789E-01 -4.016303125089E-01
H77 -4.973571673841E-01 -2.330146732494E-01  1.410394243369E-01
H78  4.973571673841E-01  2.330146732494E-01 -1.410394243369E-01
H79  1.581624416464E-01 -3.966975515623E-01  2.673708381445E-01
H80 -1.581624416464E-01  3.966975515623E-01 -2.673708381445E-01
H81 -3.843945975322E-01 -3.542888894457E-01  3.801483892322E-03
H82  3.843945975322E-01  3.542888894457E-01 -3.801483892322E-03
H83  2.682329878609E-01  4.745448052197E-01  1.324629745868E-01
H84 -2.682329878609E-01 -4.745448052197E-01 -1.324629745868E-01


#===END

data_OPT_STEP_13

_symmetry_space_group_name_H-M 'P 1'
_cell_length_a      6.35374557
_cell_length_b      7.93808039
_cell_length_c     16.70065913
_cell_angle_alpha   99.277448
_cell_angle_beta   92.034036
_cell_angle_gamma   94.705566

loop_
_atom_site_label
_atom_site_fract_x
_atom_site_fract_y
_atom_site_fract_z
C1  2.964692851027E-02  2.378302234908E-01  3.236838689631E-01
C2 -2.964692851027E-02 -2.378302234908E-01 -3.236838689631E-01
C3  8.338920512646E-02  3.357576208791E-01  3.985193005875E-01
C4 -8.338920512646E-02 -3.357576208791E-01 -3.985193005875E-01
C5  2.885875027954E-01  4.311522128735E-01  4.141057370581E-01
C6 -2.885875027954E-01 -4.311522128735E-01 -4.141057370581E-01
C7  4.374284479739E-01  4.200647947405E-01  3.558261657972E-01
C8 -4.374284479739E-01 -4.200647947405E-01 -3.558261657972E-01
C9  3.895739102238E-01  3.159155888842E-01  2.765403245953E-01
C10 -3.895739102238E-01 -3.159155888842E-01 -2.765403245953E-01
C11  1.821922956185E-01  2.182812925575E-01  2.611888945765E-01
C12 -1.821922956185E-01 -2.182812925575E-01 -2.611888945765E-01
C13  1.334586607495E-01  1.127021848841E-01  1.862656913679E-01
C14 -1.334586607495E-01 -1.127021848841E-01 -1.862656913679E-01
C15  2.886219793568E-01  8.618003472143E-02  1.265198645671E-01
C16 -2.886219793568E-01 -8.618003472143E-02 -1.265198645671E-01
C17  4.957548629478E-01  1.853315514947E-01  1.415735735327E-01
C18 -4.957548629478E-01 -1.853315514947E-01 -1.415735735327E-01
C19 -4.620396492492E-01  3.020217280241E-01  2.163645556607E-01
C20  4.620396492492E-01 -3.020217280241E-01 -2.163645556607E-01
C21  2.425622337845E-01 -2.398999889678E-02  5.186329678811E-02
C22 -2.425622337845E-01  2.398999889678E-02 -5.186329678811E-02
C23  3.971686486014E-01 -5.077819476311E-02 -7.144367320320E-03
C24 -3.971686486014E-01  5.077819476311E-02  7.144367320320E-03
C25 -3.538555511372E-01  1.660441493160E-01  8.132183584501E-02
C26  3.538555511372E-01 -1.660441493160E-01 -8.132183584501E-02
C27 -4.519569498554E-01 -1.180754440840E-01  3.032748725848E-01
C28  4.519569498554E-01  1.180754440840E-01 -3.032748725848E-01
C29 -4.035090609181E-01 -7.012080438593E-02  3.852220685512E-01
C30  4.035090609181E-01  7.012080438593E-02 -3.852220685512E-01
C31 -2.234930031611E-01 -1.325149877101E-01  4.230190627643E-01
C32  2.234930031611E-01  1.325149877101E-01 -4.230190627643E-01
C33 -8.698353463197E-02 -2.271433798741E-01  3.763440186160E-01
C34  8.698353463197E-02  2.271433798741E-01 -3.763440186160E-01
C35 -1.187120836574E-01 -2.661099713498E-01  2.887898607815E-01
C36  1.187120836574E-01  2.661099713498E-01 -2.887898607815E-01
C37 -3.090336920049E-01 -2.121956439399E-01  2.510924868780E-01
C38  3.090336920049E-01  2.121956439399E-01 -2.510924868780E-01
C39 -3.529960984123E-01 -2.610005247795E-01  1.675506145615E-01
C40  3.529960984123E-01  2.610005247795E-01 -1.675506145615E-01
C41 -2.044993231453E-01 -3.455146260758E-01  1.163992633907E-01
C42  2.044993231453E-01  3.455146260758E-01 -1.163992633907E-01
C43 -7.292025318695E-03 -3.904106233917E-01  1.535783581853E-01
C44  7.292025318695E-03  3.904106233917E-01 -1.535783581853E-01
C45  2.410721379732E-02 -3.557051012633E-01  2.402560915788E-01
C46 -2.410721379732E-02  3.557051012633E-01 -2.402560915788E-01
C47 -2.456853297598E-01 -3.925426383208E-01  3.184067188163E-02
C48  2.456853297598E-01  3.925426383208E-01 -3.184067188163E-02
C49 -9.813442620813E-02 -4.767914547924E-01 -1.862614152582E-02
C50  9.813442620813E-02  4.767914547924E-01  1.862614152582E-02
C51  1.346989381157E-01 -4.819206606078E-01  1.042033963883E-01
C52 -1.346989381157E-01  4.819206606078E-01 -1.042033963883E-01
H53 -1.314046601554E-01  1.753955901118E-01  3.090533791321E-01
H54  1.314046601554E-01 -1.753955901118E-01 -3.090533791321E-01
H55 -3.398134668302E-02  3.425012259633E-01  4.481754435363E-01
H56  3.398134668302E-02 -3.425012259633E-01 -4.481754435363E-01
H57  3.272419822408E-01 -4.812205100977E-01  4.736666559161E-01
H58 -3.272419822408E-01  4.812205100977E-01 -4.736666559161E-01
H59 -4.004540021851E-01  4.914136871567E-01  3.684058704197E-01
H60  4.004540021851E-01 -4.914136871567E-01 -3.684058704197E-01
H61 -1.991379419136E-02  3.644552993936E-02  1.757581233479E-01
H62  1.991379419136E-02 -3.644552993936E-02 -1.757581233479E-01
H63 -3.049690038008E-01  3.733340433440E-01  2.283750247804E-01
H64  3.049690038008E-01 -3.733340433440E-01 -2.283750247804E-01
H65  8.210939133176E-02 -9.400434049758E-02  3.948343400369E-02
H66 -8.210939133176E-02  9.400434049758E-02 -3.948343400369E-02
H67 -1.946246593776E-01  2.403030871804E-01  9.308639677271E-02
H68  1.946246593776E-01 -2.403030871804E-01 -9.308639677271E-02
H69  4.090041333377E-01 -7.221211854466E-02  2.751024782621E-01
H70 -4.090041333377E-01  7.221211854466E-02 -2.751024782621E-01
H71  4.949762038165E-01  1.322164785340E-02  4.248979830320E-01
H72 -4.949762038165E-01 -1.322164785340E-02 -4.248979830320E-01
H73 -1.932388114146E-01 -9.892983816846E-02  4.904355646180E-01
H74  1.932388114146E-01  9.892983816846E-02 -4.904355646180E-01
H75  4.921440063145E-02 -2.796388425350E-01  4.042680552842E-01
H76 -4.921440063145E-02  2.796388425350E-01 -4.042680552842E-01
H77 -4.909222750582E-01 -2.140604577759E-01  1.389381806631E-01
H78  4.909222750582E-01  2.140604577759E-01 -1.389381806631E-01
H79  1.662430380659E-01 -3.976552524306E-01  2.686395217568E-01
H80 -1.662430380659E-01  3.976552524306E-01 -2.686395217568E-01
H81 -3.892851310815E-01 -3.507841587073E-01  3.048018730430E-03
H82  3.892851310815E-01  3.507841587073E-01 -3.048018730430E-03
H83  2.802673028692E-01  4.798284264761E-01  1.327811530224E-01
H84 -2.802673028692E-01 -4.798284264761E-01 -1.327811530224E-01


#===END

data_OPT_STEP_14

_symmetry_space_group_name_H-M 'P 1'
_cell_length_a      6.34665634
_cell_length_b      7.92566230
_cell_length_c     16.69902617
_cell_angle_alpha   99.291363
_cell_angle_beta   91.921011
_cell_angle_gamma   95.027078

loop_
_atom_site_label
_atom_site_fract_x
_atom_site_fract_y
_atom_site_fract_z
C1  2.997161247359E-02  2.332423030129E-01  3.245788363791E-01
C2 -2.997161247359E-02 -2.332423030129E-01 -3.245788363791E-01
C3  8.309595026344E-02  3.326465761527E-01  3.991500007880E-01
C4 -8.309595026344E-02 -3.326465761528E-01 -3.991500007880E-01
C5  2.880629450866E-01  4.300801425353E-01  4.144940325616E-01
C6 -2.880629450866E-01 -4.300801425353E-01 -4.144940325616E-01
C7  4.367154811800E-01  4.205907882203E-01  3.559662932283E-01
C8 -4.367154811800E-01 -4.205907882203E-01 -3.559662932283E-01
C9  3.899803401493E-01  3.141618607509E-01  2.771167152050E-01
C10 -3.899803401493E-01 -3.141618607509E-01 -2.771167152050E-01
C11  1.825963652154E-01  2.148888421379E-01  2.619298656666E-01
C12 -1.825963652154E-01 -2.148888421379E-01 -2.619298656666E-01
C13  1.339279933790E-01  1.088314225075E-01  1.870125573972E-01
C14 -1.339279933790E-01 -1.088314225075E-01 -1.870125573972E-01
C15  2.887090616345E-01  8.425148932784E-02  1.269109716967E-01
C16 -2.887090616345E-01 -8.425148932784E-02 -1.269109716967E-01
C17  4.961996328267E-01  1.843756241707E-01  1.419409854350E-01
C18 -4.961996328267E-01 -1.843756241707E-01 -1.419409854350E-01
C19 -4.614351376986E-01  3.009339378614E-01  2.168583703349E-01
C20  4.614351376986E-01 -3.009339378614E-01 -2.168583703349E-01
C21  2.431075225727E-01 -2.705436182074E-02  5.242004288200E-02
C22 -2.431075225727E-01  2.705436182074E-02 -5.242004288200E-02
C23  3.969043256842E-01 -5.111925839539E-02 -7.171325094027E-03
C24 -3.969043256842E-01  5.111925839539E-02  7.171325094027E-03
C25 -3.529276904902E-01  1.653805926392E-01  8.169468698881E-02
C26  3.529276904902E-01 -1.653805926392E-01 -8.169468698881E-02
C27 -4.509428001413E-01 -1.162432887382E-01  3.030415240985E-01
C28  4.509428001413E-01  1.162432887382E-01 -3.030415240985E-01
C29 -4.043465393912E-01 -7.021169562976E-02  3.851225422739E-01
C30  4.043465393912E-01  7.021169562976E-02 -3.851225422739E-01
C31 -2.222186409967E-01 -1.287883089683E-01  4.227738498188E-01
C32  2.222186409967E-01  1.287883089683E-01 -4.227738498188E-01
C33 -8.582913753343E-02 -2.239022579541E-01  3.762385198882E-01
C34  8.582913753343E-02  2.239022579541E-01 -3.762385198882E-01
C35 -1.181578750853E-01 -2.644964783231E-01  2.887437822404E-01
C36  1.181578750853E-01  2.644964783231E-01 -2.887437822404E-01
C37 -3.085112564279E-01 -2.113223973952E-01  2.510422079224E-01
C38  3.085112564279E-01  2.113223973952E-01 -2.510422079224E-01
C39 -3.513078302710E-01 -2.588239763284E-01  1.673960293209E-01
C40  3.513078302710E-01  2.588239763284E-01 -1.673960293209E-01
C41 -2.039800631304E-01 -3.449909013055E-01  1.163909426327E-01
C42  2.039800631304E-01  3.449909013055E-01 -1.163909426327E-01
C43 -8.063818325126E-03 -3.911024277959E-01  1.536678280488E-01
C44  8.063818325126E-03  3.911024277959E-01 -1.536678280488E-01
C45  2.508955308096E-02 -3.534545238045E-01  2.401729874560E-01
C46 -2.508955308096E-02  3.534545238045E-01 -2.401729874560E-01
C47 -2.438643044312E-01 -3.903769868283E-01  3.171352444589E-02
C48  2.438643044312E-01  3.903769868283E-01 -3.171352444589E-02
C49 -9.744714794257E-02 -4.761310965228E-01 -1.866901665541E-02
C50  9.744714794257E-02  4.761310965228E-01  1.866901665541E-02
C51  1.341545306252E-01 -4.821625924147E-01  1.042309010614E-01
C52 -1.341545306252E-01  4.821625924147E-01 -1.042309010614E-01
H53 -1.310332511700E-01  1.687327081647E-01  3.102406261542E-01
H54  1.310332511700E-01 -1.687327081647E-01 -3.102406261542E-01
H55 -3.460053422998E-02  3.390243719877E-01  4.488272640017E-01
H56  3.460053422998E-02 -3.390243719877E-01 -4.488272640017E-01
H57  3.267353558714E-01 -4.820082072746E-01  4.741272526759E-01
H58 -3.267353558714E-01  4.820082072746E-01 -4.741272526759E-01
H59 -4.020291883799E-01  4.947943465608E-01  3.680970338543E-01
H60  4.020291883799E-01 -4.947943465608E-01 -3.680970338543E-01
H61 -1.893359567284E-02  2.977365592643E-02  1.769722173533E-01
H62  1.893359567284E-02 -2.977365592643E-02 -1.769722173533E-01
H63 -3.035837052618E-01  3.723689777350E-01  2.290354669091E-01
H64  3.035837052618E-01 -3.723689777350E-01 -2.290354669091E-01
H65  8.320492115846E-02 -9.971093424205E-02  4.049035795613E-02
H66 -8.320492115846E-02  9.971093424205E-02 -4.049035795613E-02
H67 -1.931544615277E-01  2.400917394869E-01  9.350637682243E-02
H68  1.931544615277E-01 -2.400917394869E-01 -9.350637682243E-02
H69  4.098028929088E-01 -7.061825432992E-02  2.747490126521E-01
H70 -4.098028929088E-01  7.061825432992E-02 -2.747490126521E-01
H71  4.921968453573E-01  1.079211762476E-02  4.248589388143E-01
H72 -4.921968453573E-01 -1.079211762476E-02 -4.248589388143E-01
H73 -1.913472540992E-01 -9.380216040074E-02  4.901773108248E-01
H74  1.913472540992E-01  9.380216040074E-02 -4.901773108248E-01
H75  5.126690852774E-02 -2.742999139523E-01  4.043283043357E-01
H76 -5.126690852774E-02  2.742999139523E-01 -4.043283043357E-01
H77 -4.878043457616E-01 -2.095335738264E-01  1.385257983041E-01
H78  4.878043457616E-01  2.095335738264E-01 -1.385257983041E-01
H79  1.692807696206E-01 -3.924842574131E-01  2.684320023654E-01
H80 -1.692807696206E-01  3.924842574131E-01 -2.684320023654E-01
H81 -3.868265398927E-01 -3.475709429769E-01  2.809780974877E-03
H82  3.868265398927E-01  3.475709429769E-01 -2.809780974877E-03
H83  2.805947187162E-01  4.807682952044E-01  1.327586084486E-01
H84 -2.805947187162E-01 -4.807682952044E-01 -1.327586084486E-01


#===END

data_OPT_STEP_15

_symmetry_space_group_name_H-M 'P 1'
_cell_length_a      6.32535907
_cell_length_b      7.93498701
_cell_length_c     16.65178228
_cell_angle_alpha   99.218613
_cell_angle_beta   92.299094
_cell_angle_gamma   94.977819

loop_
_atom_site_label
_atom_site_fract_x
_atom_site_fract_y
_atom_site_fract_z
C1  2.983695070496E-02  2.400043593573E-01  3.237538804985E-01
C2 -2.983695070496E-02 -2.400043593573E-01 -3.237538804985E-01
C3  8.296093912449E-02  3.415956700496E-01  3.979207031637E-01
C4 -8.296093912449E-02 -3.415956700496E-01 -3.979207031637E-01
C5  2.888549821213E-01  4.384540618301E-01  4.134013265891E-01
C6 -2.888549821213E-01 -4.384540618301E-01 -4.134013265891E-01
C7  4.372411411885E-01  4.284459835299E-01  3.548621639903E-01
C8 -4.372411411885E-01 -4.284459835299E-01 -3.548621639903E-01
C9  3.903624676987E-01  3.202163554625E-01  2.762870827976E-01
C10 -3.903624676987E-01 -3.202163554625E-01 -2.762870827976E-01
C11  1.815225679046E-01  2.223940017226E-01  2.607758758917E-01
C12 -1.815225679046E-01 -2.223940017226E-01 -2.607758758917E-01
C13  1.328255112491E-01  1.143624855059E-01  1.861820577924E-01
C14 -1.328255112491E-01 -1.143624855059E-01 -1.861820577924E-01
C15  2.864095275461E-01  9.083237671384E-02  1.256565278978E-01
C16 -2.864095275461E-01 -9.083237671384E-02 -1.256565278978E-01
C17  4.956831507051E-01  1.888950594316E-01  1.411189899337E-01
C18 -4.956831507051E-01 -1.888950594316E-01 -1.411189899337E-01
C19 -4.605433642853E-01  3.047135914846E-01  2.163295930104E-01
C20  4.605433642853E-01 -3.047135914846E-01 -2.163295930104E-01
C21  2.414457408569E-01 -2.365156487482E-02  5.178904524858E-02
C22 -2.414457408569E-01  2.365156487482E-02 -5.178904524858E-02
C23  3.956412335503E-01 -4.948886415086E-02 -7.545050235526E-03
C24 -3.956412335503E-01  4.948886415086E-02  7.545050235526E-03
C25 -3.518740211029E-01  1.659879168370E-01  8.163927570619E-02
C26  3.518740211029E-01 -1.659879168370E-01 -8.163927570619E-02
C27 -4.527898025598E-01 -1.207363159847E-01  3.030926389544E-01
C28  4.527898025598E-01  1.207363159847E-01 -3.030926389544E-01
C29 -4.079088170950E-01 -7.733174002314E-02  3.856030241270E-01
C30  4.079088170950E-01  7.733174002314E-02 -3.856030241270E-01
C31 -2.250926513380E-01 -1.357664090174E-01  4.238033807626E-01
C32  2.250926513380E-01  1.357664090174E-01 -4.238033807626E-01
C33 -8.840081369000E-02 -2.312034233963E-01  3.775706140395E-01
C34  8.840081369000E-02  2.312034233963E-01 -3.775706140395E-01
C35 -1.225737145856E-01 -2.736467686122E-01  2.898824325344E-01
C36  1.225737145856E-01  2.736467686122E-01 -2.898824325344E-01
C37 -3.126617386195E-01 -2.195811772158E-01  2.516927059548E-01
C38  3.126617386195E-01  2.195811772158E-01 -2.516927059548E-01
C39 -3.534975662251E-01 -2.632364554839E-01  1.675144800750E-01
C40  3.534975662251E-01  2.632364554839E-01 -1.675144800750E-01
C41 -2.074903228382E-01 -3.512368520608E-01  1.167802112500E-01
C42  2.074903228382E-01  3.512368520608E-01 -1.167802112500E-01
C43 -1.335239356862E-02 -4.004574646257E-01  1.546427358652E-01
C44  1.335239356862E-02  4.004574646257E-01 -1.546427358652E-01
C45  2.068846922256E-02 -3.624854248839E-01  2.413829491448E-01
C46 -2.068846922256E-02  3.624854248839E-01 -2.413829491448E-01
C47 -2.445913558684E-01 -3.913318302864E-01  3.151667517271E-02
C48  2.445913558684E-01  3.913318302864E-01 -3.151667517271E-02
C49 -9.718738051002E-02 -4.754443715936E-01 -1.889617240585E-02
C50  9.718738051002E-02  4.754443715936E-01  1.889617240585E-02
C51  1.322666692769E-01 -4.864646660814E-01  1.049276730424E-01
C52 -1.322666692769E-01  4.864646660814E-01 -1.049276730424E-01
H53 -1.288885732406E-01  1.700455090164E-01  3.107742633495E-01
H54  1.288885732406E-01 -1.700455090164E-01 -3.107742633495E-01
H55 -3.409603934356E-02  3.485495563492E-01  4.474180004399E-01
H56  3.409603934356E-02 -3.485495563492E-01 -4.474180004399E-01
H57  3.288751698202E-01 -4.760427563807E-01  4.734963053712E-01
H58 -3.288751698202E-01  4.760427563807E-01 -4.734963053712E-01
H59 -4.024207561864E-01 -4.961625359064E-01  3.667533478851E-01
H60  4.024207561864E-01  4.961625359064E-01 -3.667533478851E-01
H61 -2.059057290487E-02  3.555136207867E-02  1.760856656122E-01
H62  2.059057290487E-02 -3.555136207867E-02 -1.760856656122E-01
H63 -3.019832104986E-01  3.753501135453E-01  2.286789698715E-01
H64  3.019832104986E-01 -3.753501135453E-01 -2.286789698715E-01
H65  8.224246759510E-02 -9.773745515332E-02  4.024515679105E-02
H66 -8.224246759510E-02  9.773745515332E-02 -4.024515679105E-02
H67 -1.924066486060E-01  2.413045162433E-01  9.319474765385E-02
H68  1.924066486060E-01 -2.413045162433E-01 -9.319474765385E-02
H69  4.063320042693E-01 -7.697144906583E-02  2.745103487963E-01
H70 -4.063320042693E-01  7.697144906583E-02 -2.745103487963E-01
H71  4.886733275244E-01  4.322077976031E-03  4.246934013841E-01
H72 -4.886733275244E-01 -4.322077976031E-03 -4.246934013841E-01
H73 -1.953940134958E-01 -1.029421009109E-01  4.913714942717E-01
H74  1.953940134958E-01  1.029421009109E-01 -4.913714942717E-01
H75  5.056534682104E-02 -2.785009849404E-01  4.060876048477E-01
H76 -5.056534682104E-02  2.785009849404E-01 -4.060876048477E-01
H77 -4.919435562330E-01 -2.161343996729E-01  1.385052504234E-01
H78  4.919435562330E-01  2.161343996729E-01 -1.385052504234E-01
H79  1.651877690972E-01 -4.017243114126E-01  2.699498424993E-01
H80 -1.651877690972E-01  4.017243114126E-01 -2.699498424993E-01
H81 -3.891971679126E-01 -3.505997113777E-01  2.566876826394E-03
H82  3.891971679126E-01  3.505997113777E-01 -2.566876826394E-03
H83  2.790290223297E-01  4.763677447902E-01  1.336441988357E-01
H84 -2.790290223297E-01 -4.763677447902E-01 -1.336441988357E-01


#===END

data_OPT_STEP_16

_symmetry_space_group_name_H-M 'P 1'
_cell_length_a      6.33393504
_cell_length_b      7.94806661
_cell_length_c     16.66058824
_cell_angle_alpha   99.407911
_cell_angle_beta   91.886497
_cell_angle_gamma   95.639877

loop_
_atom_site_label
_atom_site_fract_x
_atom_site_fract_y
_atom_site_fract_z
C1  3.086807530226E-02  2.315448356914E-01  3.256817615112E-01
C2 -3.086807530226E-02 -2.315448356914E-01 -3.256817615112E-01
C3  8.266335755715E-02  3.357950473699E-01  3.993428106051E-01
C4 -8.266335755715E-02 -3.357950473699E-01 -3.993428106051E-01
C5  2.882626658378E-01  4.345334361446E-01  4.145720772637E-01
C6 -2.882626658378E-01 -4.345334361446E-01 -4.145720772637E-01
C7  4.383844586845E-01  4.223814684190E-01  3.566053203302E-01
C8 -4.383844586845E-01 -4.223814684190E-01 -3.566053203302E-01
C9  3.913741449623E-01  3.146616533046E-01  2.778131072652E-01
C10 -3.913741449623E-01 -3.146616533046E-01 -2.778131072652E-01
C11  1.819288356928E-01  2.165490517415E-01  2.621426039508E-01
C12 -1.819288356928E-01 -2.165490517415E-01 -2.621426039508E-01
C13  1.347761063385E-01  1.058602512119E-01  1.880309318281E-01
C14 -1.347761063385E-01 -1.058602512119E-01 -1.880309318281E-01
C15  2.862721924513E-01  8.784544060887E-02  1.262668454903E-01
C16 -2.862721924513E-01 -8.784544060887E-02 -1.262668454903E-01
C17  4.962856620020E-01  1.859878138755E-01  1.419665829366E-01
C18 -4.962856620020E-01 -1.859878138755E-01 -1.419665829366E-01
C19 -4.586776546898E-01  2.987768776871E-01  2.179847531498E-01
C20  4.586776546898E-01 -2.987768776871E-01 -2.179847531498E-01
C21  2.406790074068E-01 -2.492034495849E-02  5.180842981430E-02
C22 -2.406790074068E-01  2.492034495849E-02 -5.180842981430E-02
C23  3.947583553180E-01 -4.869564970759E-02 -7.898559825872E-03
C24 -3.947583553180E-01  4.869564970759E-02  7.898559825872E-03
C25 -3.511409073483E-01  1.646276835226E-01  8.224763423365E-02
C26  3.511409073483E-01 -1.646276835226E-01 -8.224763423365E-02
C27 -4.473853212834E-01 -1.159503512574E-01  3.033852460401E-01
C28  4.473853212834E-01  1.159503512574E-01 -3.033852460401E-01
C29 -4.051076456862E-01 -7.509376505352E-02  3.860700889024E-01
C30  4.051076456862E-01  7.509376505352E-02 -3.860700889024E-01
C31 -2.246738511850E-01 -1.350240417110E-01  4.241750993220E-01
C32  2.246738511850E-01  1.350240417110E-01 -4.241750993220E-01
C33 -8.417801614286E-02 -2.241508402570E-01  3.774171264546E-01
C34  8.417801614286E-02  2.241508402570E-01 -3.774171264546E-01
C35 -1.180207255148E-01 -2.667109887779E-01  2.897088747823E-01
C36  1.180207255148E-01  2.667109887779E-01 -2.897088747823E-01
C37 -3.072847994650E-01 -2.140104814033E-01  2.518883876736E-01
C38  3.072847994650E-01  2.140104814033E-01 -2.518883876736E-01
C39 -3.463755608326E-01 -2.558413746647E-01  1.675644958539E-01
C40  3.463755608326E-01  2.558413746647E-01 -1.675644958539E-01
C41 -2.034371913247E-01 -3.471133443237E-01  1.168334415104E-01
C42  2.034371913247E-01  3.471133443237E-01 -1.168334415104E-01
C43 -9.993386527382E-03 -3.946558540167E-01  1.543101172175E-01
C44  9.993386527382E-03  3.946558540167E-01 -1.543101172175E-01
C45  2.449349371047E-02 -3.551944088623E-01  2.409148489056E-01
C46 -2.449349371047E-02  3.551944088623E-01 -2.409148489056E-01
C47 -2.419864591290E-01 -3.900168844339E-01  3.178099927915E-02
C48  2.419864591290E-01  3.900168844339E-01 -3.178099927915E-02
C49 -9.764289897001E-02 -4.774397670833E-01 -1.864794053213E-02
C50  9.764289897001E-02  4.774397670833E-01  1.864794053213E-02
C51  1.350691344572E-01 -4.802171975522E-01  1.043340556707E-01
C52 -1.350691344572E-01  4.802171975522E-01 -1.043340556707E-01
H53 -1.251455255666E-01  1.549359898118E-01  3.142023754565E-01
H54  1.251455255666E-01 -1.549359898118E-01 -3.142023754565E-01
H55 -3.433336959063E-02  3.429596439622E-01  4.485871565147E-01
H56  3.433336959063E-02 -3.429596439622E-01 -4.485871565147E-01
H57  3.276003267737E-01 -4.797846246815E-01  4.744586900274E-01
H58 -3.276003267737E-01  4.797846246815E-01 -4.744586900274E-01
H59 -4.008767863909E-01  4.964231128713E-01  3.689827571706E-01
H60  4.008767863909E-01 -4.964231128713E-01 -3.689827571706E-01
H61 -1.861727178544E-02  2.571058389252E-02  1.780545859375E-01
H62  1.861727178544E-02 -2.571058389252E-02 -1.780545859375E-01
H63 -3.002657305868E-01  3.705305727349E-01  2.302500548079E-01
H64  3.002657305868E-01 -3.705305727349E-01 -2.302500548079E-01
H65  8.201413007767E-02 -1.003907452050E-01  4.040693432107E-02
H66 -8.201413007767E-02  1.003907452050E-01 -4.040693432107E-02
H67 -1.919212471886E-01  2.403559963381E-01  9.381331524073E-02
H68  1.919212471886E-01 -2.403559963381E-01 -9.381331524073E-02
H69  4.124858787142E-01 -7.243175762349E-02  2.748515208430E-01
H70 -4.124858787142E-01  7.243175762349E-02 -2.748515208430E-01
H71  4.912839417966E-01  5.730321118324E-03  4.249818161056E-01
H72 -4.912839417966E-01 -5.730321118324E-03 -4.249818161056E-01
H73 -1.981363687639E-01 -1.063369586972E-01  4.918131728265E-01
H74  1.981363687639E-01  1.063369586972E-01 -4.918131728265E-01
H75  5.568616298509E-02 -2.674749195513E-01  4.059581289575E-01
H76 -5.568616298509E-02  2.674749195513E-01 -4.059581289575E-01
H77 -4.869510281929E-01 -2.132366673553E-01  1.390004033275E-01
H78  4.869510281929E-01  2.132366673553E-01 -1.390004033275E-01
H79  1.669721123854E-01 -3.959629804192E-01  2.694617984114E-01
H80 -1.669721123854E-01  3.959629804192E-01 -2.694617984114E-01
H81 -3.870907235778E-01 -3.517600777316E-01  3.219029024655E-03
H82  3.870907235778E-01  3.517600777316E-01 -3.219029024655E-03
H83  2.810246730895E-01  4.831193402441E-01  1.328072467571E-01
H84 -2.810246730895E-01 -4.831193402441E-01 -1.328072467571E-01


#===END

data_OPT_STEP_17

_symmetry_space_group_name_H-M 'P 1'
_cell_length_a      6.32051698
_cell_length_b      7.87437770
_cell_length_c     16.56614079
_cell_angle_alpha   98.726605
_cell_angle_beta   92.500788
_cell_angle_gamma   94.997431

loop_
_atom_site_label
_atom_site_fract_x
_atom_site_fract_y
_atom_site_fract_z
C1  3.043304713958E-02  2.334201415775E-01  3.250948466169E-01
C2 -3.043304713958E-02 -2.334201415775E-01 -3.250948466169E-01
C3  8.141287014380E-02  3.392834790644E-01  3.984677621349E-01
C4 -8.141287014380E-02 -3.392834790644E-01 -3.984677621349E-01
C5  2.870668882937E-01  4.373942677751E-01  4.139739867661E-01
C6 -2.870668882937E-01 -4.373942677751E-01 -4.139739867661E-01
C7  4.370910943042E-01  4.247690504420E-01  3.561495164973E-01
C8 -4.370910943042E-01 -4.247690504420E-01 -3.561495164973E-01
C9  3.902416411201E-01  3.167028981910E-01  2.773637640564E-01
C10 -3.902416411201E-01 -3.167028981910E-01 -2.773637640564E-01
C11  1.817833941231E-01  2.173700523012E-01  2.618546686324E-01
C12 -1.817833941231E-01 -2.173700523012E-01 -2.618546686324E-01
C13  1.363717199731E-01  1.034644510372E-01  1.884190868153E-01
C14 -1.363717199731E-01 -1.034644510372E-01 -1.884190868153E-01
C15  2.872887444420E-01  8.623349798211E-02  1.265489122178E-01
C16 -2.872887444420E-01 -8.623349798211E-02 -1.265489122178E-01
C17  4.951604953066E-01  1.876706372073E-01  1.415946384943E-01
C18 -4.951604953066E-01 -1.876706372073E-01 -1.415946384943E-01
C19 -4.602478842763E-01  3.010703518266E-01  2.175173695619E-01
C20  4.602478842763E-01 -3.010703518266E-01 -2.175173695619E-01
C21  2.430385833391E-01 -2.878126902028E-02  5.256648249763E-02
C22 -2.430385833391E-01  2.878126902028E-02 -5.256648249763E-02
C23  3.959704422170E-01 -5.058929739862E-02 -7.514624022948E-03
C24 -3.959704422170E-01  5.058929739862E-02  7.514624022948E-03
C25 -3.534785425702E-01  1.682841128250E-01  8.149378292541E-02
C26  3.534785425702E-01 -1.682841128250E-01 -8.149378292541E-02
C27 -4.489677980459E-01 -1.144524080005E-01  3.025367457401E-01
C28  4.489677980459E-01  1.144524080005E-01 -3.025367457401E-01
C29 -4.061949359111E-01 -7.437459168736E-02  3.856243319001E-01
C30  4.061949359111E-01  7.437459168736E-02 -3.856243319001E-01
C31 -2.236028863473E-01 -1.343191779027E-01  4.243898729778E-01
C32  2.236028863473E-01  1.343191779027E-01 -4.243898729778E-01
C33 -8.102572554932E-02 -2.218236676702E-01  3.778618642445E-01
C34  8.102572554932E-02  2.218236676702E-01 -3.778618642445E-01
C35 -1.149732356194E-01 -2.630580391390E-01  2.897504545593E-01
C36  1.149732356194E-01  2.630580391390E-01 -2.897504545593E-01
C37 -3.066486722602E-01 -2.108114289933E-01  2.512565626444E-01
C38  3.066486722602E-01  2.108114289933E-01 -2.512565626444E-01
C39 -3.460651894703E-01 -2.518272075098E-01  1.665222551963E-01
C40  3.460651894703E-01  2.518272075098E-01 -1.665222551963E-01
C41 -2.027233817807E-01 -3.440984230233E-01  1.162069150668E-01
C42  2.027233817807E-01  3.440984230233E-01 -1.162069150668E-01
C43 -6.891534883770E-03 -3.910887129872E-01  1.543945974746E-01
C44  6.891534883770E-03  3.910887129872E-01 -1.543945974746E-01
C45  2.901186826496E-02 -3.507896929162E-01  2.412562580495E-01
C46 -2.901186826496E-02  3.507896929162E-01 -2.412562580495E-01
C47 -2.429827821410E-01 -3.883651870139E-01  3.090209761429E-02
C48  2.429827821410E-01  3.883651870139E-01 -3.090209761429E-02
C49 -9.892939019521E-02 -4.778512617053E-01 -1.901222571039E-02
C50  9.892939019521E-02  4.778512617053E-01  1.901222571039E-02
C51  1.385906242624E-01 -4.776012040733E-01  1.048727933130E-01
C52 -1.385906242624E-01  4.776012040733E-01 -1.048727933130E-01
H53 -1.249538544578E-01  1.556795446477E-01  3.137813022355E-01
H54  1.249538544578E-01 -1.556795446477E-01 -3.137813022355E-01
H55 -3.572778255204E-02  3.471784234260E-01  4.474771299892E-01
H56  3.572778255204E-02 -3.471784234260E-01 -4.474771299892E-01
H57  3.267301346165E-01 -4.775318944301E-01  4.740316260023E-01
H58 -3.267301346165E-01  4.775318944301E-01 -4.740316260023E-01
H59 -4.022302488523E-01  4.983567115477E-01  3.687221571968E-01
H60  4.022302488523E-01 -4.983567115477E-01 -3.687221571968E-01
H61 -1.613596087878E-02  2.165576476231E-02  1.786955104792E-01
H62  1.613596087878E-02 -2.165576476231E-02 -1.786955104792E-01
H63 -3.029434620574E-01  3.746062872067E-01  2.294516421831E-01
H64  3.029434620574E-01 -3.746062872067E-01 -2.294516421831E-01
H65  8.611382134017E-02 -1.072324617954E-01  4.176076416506E-02
H66 -8.611382134017E-02  1.072324617954E-01 -4.176076416506E-02
H67 -1.954997956528E-01  2.458075341251E-01  9.272402764235E-02
H68  1.954997956528E-01 -2.458075341251E-01 -9.272402764235E-02
H69  4.100498731828E-01 -7.006528753163E-02  2.734669954441E-01
H70 -4.100498731828E-01  7.006528753163E-02 -2.734669954441E-01
H71  4.891034616117E-01  5.794501196106E-03  4.243719955733E-01
H72 -4.891034616117E-01 -5.794501196106E-03 -4.243719955733E-01
H73 -1.965224906390E-01 -1.059477728462E-01  4.922422826131E-01
H74  1.965224906390E-01  1.059477728462E-01 -4.922422826131E-01
H75  5.932706094797E-02 -2.661527761010E-01  4.070277425304E-01
H76 -5.932706094797E-02  2.661527761010E-01 -4.070277425304E-01
H77 -4.884399681505E-01 -2.098541981477E-01  1.375113910242E-01
H78  4.884399681505E-01  2.098541981477E-01 -1.375113910242E-01
H79  1.729882879730E-01 -3.913231170294E-01  2.702780063295E-01
H80 -1.729882879730E-01  3.913231170294E-01 -2.702780063295E-01
H81 -3.891633205235E-01 -3.497834757393E-01  1.821776699257E-03
H82  3.891633205235E-01  3.497834757393E-01 -1.821776699257E-03
H83  2.860814616151E-01  4.861403270478E-01  1.338190123182E-01
H84 -2.860814616151E-01 -4.861403270478E-01 -1.338190123182E-01


#===END

data_OPT_STEP_18

_symmetry_space_group_name_H-M 'P 1'
_cell_length_a      6.31424031
_cell_length_b      7.85026535
_cell_length_c     16.55738866
_cell_angle_alpha   98.611466
_cell_angle_beta   92.428412
_cell_angle_gamma   95.234686

loop_
_atom_site_label
_atom_site_fract_x
_atom_site_fract_y
_atom_site_fract_z
C1  2.959963732170E-02  2.334072815195E-01  3.250101147259E-01
C2 -2.959963732170E-02 -2.334072815195E-01 -3.250101147259E-01
C3  8.094570441044E-02  3.392891861531E-01  3.984101639451E-01
C4 -8.094570441044E-02 -3.392891861531E-01 -3.984101639451E-01
C5  2.872030799947E-01  4.377512503106E-01  4.139019291485E-01
C6 -2.872030799947E-01 -4.377512503106E-01 -4.139019291485E-01
C7  4.376671835855E-01  4.250327803712E-01  3.561361276131E-01
C8 -4.376671835855E-01 -4.250327803712E-01 -3.561361276131E-01
C9  3.905729923568E-01  3.167729084591E-01  2.773686737949E-01
C10 -3.905729923568E-01 -3.167729084591E-01 -2.773686737949E-01
C11  1.813097039097E-01  2.174145811680E-01  2.617912862672E-01
C12 -1.813097039097E-01 -2.174145811680E-01 -2.617912862672E-01
C13  1.354843836433E-01  1.036030422723E-01  1.882998613609E-01
C14 -1.354843836433E-01 -1.036030422723E-01 -1.882998613609E-01
C15  2.868457111207E-01  8.626831248901E-02  1.264927921243E-01
C16 -2.868457111207E-01 -8.626831248901E-02 -1.264927921243E-01
C17  4.957069431829E-01  1.874127098342E-01  1.416896627312E-01
C18 -4.957069431829E-01 -1.874127098342E-01 -1.416896627312E-01
C19 -4.593691729491E-01  3.008516895648E-01  2.176297842784E-01
C20  4.593691729491E-01 -3.008516895648E-01 -2.176297842784E-01
C21  2.420878740852E-01 -2.850392379023E-02  5.241454304156E-02
C22 -2.420878740852E-01  2.850392379023E-02 -5.241454304156E-02
C23  3.954380155836E-01 -5.038854365649E-02 -7.607339927213E-03
C24 -3.954380155836E-01  5.038854365649E-02  7.607339927213E-03
C25 -3.523975058285E-01  1.677386580042E-01  8.170460686251E-02
C26  3.523975058285E-01 -1.677386580042E-01 -8.170460686251E-02
C27 -4.489581865236E-01 -1.144640772728E-01  3.025251941306E-01
C28  4.489581865236E-01  1.144640772728E-01 -3.025251941306E-01
C29 -4.060954462430E-01 -7.428075819199E-02  3.856168386669E-01
C30  4.060954462430E-01  7.428075819199E-02 -3.856168386669E-01
C31 -2.231019743236E-01 -1.336792278917E-01  4.243540664491E-01
C32  2.231019743236E-01  1.336792278917E-01 -4.243540664491E-01
C33 -8.038218812802E-02 -2.209690058571E-01  3.778187422761E-01
C34  8.038218812802E-02  2.209690058571E-01 -3.778187422761E-01
C35 -1.145326424935E-01 -2.624511161598E-01  2.897191447492E-01
C36  1.145326424935E-01  2.624511161598E-01 -2.897191447492E-01
C37 -3.064484552546E-01 -2.105554000728E-01  2.512374681895E-01
C38  3.064484552546E-01  2.105554000728E-01 -2.512374681895E-01
C39 -3.458372932146E-01 -2.515076696038E-01  1.664875985624E-01
C40  3.458372932146E-01  2.515076696038E-01 -1.664875985624E-01
C41 -2.024809046302E-01 -3.437545820778E-01  1.161757228122E-01
C42  2.024809046302E-01  3.437545820778E-01 -1.161757228122E-01
C43 -6.633854773769E-03 -3.907093118745E-01  1.543765553127E-01
C44  6.633854773769E-03  3.907093118745E-01 -1.543765553127E-01
C45  2.943156163145E-02 -3.501782414472E-01  2.412280746120E-01
C46 -2.943156163145E-02  3.501782414472E-01 -2.412280746120E-01
C47 -2.427157114285E-01 -3.879731135797E-01  3.085812776591E-02
C48  2.427157114285E-01  3.879731135797E-01 -3.085812776591E-02
C49 -9.885839489890E-02 -4.777590097054E-01 -1.902782431767E-02
C50  9.885839489890E-02  4.777590097054E-01  1.902782431767E-02
C51  1.385603423099E-01 -4.776247565876E-01  1.048903665517E-01
C52 -1.385603423099E-01  4.776247565876E-01 -1.048903665517E-01
H53 -1.262460690719E-01  1.554906183167E-01  3.136904383580E-01
H54  1.262460690719E-01 -1.554906183167E-01 -3.136904383580E-01
H55 -3.629429832530E-02  3.469463922500E-01  4.474546033096E-01
H56  3.629429832530E-02 -3.469463922500E-01 -4.474546033096E-01
H57  3.270395853754E-01 -4.770855653552E-01  4.739555898351E-01
H58 -3.270395853754E-01  4.770855653552E-01 -4.739555898351E-01
H59 -4.011738248370E-01  4.986464841743E-01  3.687505781418E-01
H60  4.011738248370E-01 -4.986464841743E-01 -3.687505781418E-01
H61 -1.770605866818E-02  2.201541301327E-02  1.784639007381E-01
H62  1.770605866818E-02 -2.201541301327E-02 -1.784639007381E-01
H63 -3.015212866446E-01  3.744438595647E-01  2.296056688892E-01
H64  3.015212866446E-01 -3.744438595647E-01 -2.296056688892E-01
H65  8.455010642452E-02 -1.068101355764E-01  4.151596605186E-02
H66 -8.455010642452E-02  1.068101355764E-01 -4.151596605186E-02
H67 -1.936167800508E-01  2.447092171227E-01  9.312319649086E-02
H68  1.936167800508E-01 -2.447092171227E-01 -9.312319649086E-02
H69  4.103465954654E-01 -6.960669978323E-02  2.734042271954E-01
H70 -4.103465954654E-01  6.960669978323E-02 -2.734042271954E-01
H71  4.891387582750E-01  5.834626307826E-03  4.243537771935E-01
H72 -4.891387582750E-01 -5.834626307825E-03 -4.243537771935E-01
H73 -1.956875246049E-01 -1.048508139280E-01  4.921752098213E-01
H74  1.956875246049E-01  1.048508139280E-01 -4.921752098213E-01
H75  6.018213664694E-02 -2.649850551354E-01  4.069824101862E-01
H76 -6.018213664694E-02  2.649850551354E-01 -4.069824101862E-01
H77 -4.882677968380E-01 -2.095698687938E-01  1.374634839674E-01
H78  4.882677968380E-01  2.095698687938E-01 -1.374634839674E-01
H79  1.733579508715E-01 -3.908058814425E-01  2.702699666796E-01
H80 -1.733579508715E-01  3.908058814425E-01 -2.702699666796E-01
H81 -3.886077353771E-01 -3.489446438183E-01  1.735080215853E-03
H82  3.886077353771E-01  3.489446438183E-01 -1.735080215853E-03
H83  2.858447905439E-01  4.858196760544E-01  1.338687212271E-01
H84 -2.858447905439E-01 -4.858196760544E-01 -1.338687212271E-01


#===END

data_OPT_STEP_19

_symmetry_space_group_name_H-M 'P 1'
_cell_length_a      6.33750468
_cell_length_b      7.87476473
_cell_length_c     16.55793603
_cell_angle_alpha   98.729176
_cell_angle_beta   92.323985
_cell_angle_gamma   95.458729

loop_
_atom_site_label
_atom_site_fract_x
_atom_site_fract_y
_atom_site_fract_z
C1  3.330967143148E-02  2.313737717070E-01  3.259217075953E-01
C2 -3.330967143148E-02 -2.313737717070E-01 -3.259217075953E-01
C3  8.379594455352E-02  3.396560529636E-01  3.988008169095E-01
C4 -8.379594455352E-02 -3.396560529636E-01 -3.988008169095E-01
C5  2.891183788688E-01  4.389779223991E-01  4.139265690416E-01
C6 -2.891183788688E-01 -4.389779223991E-01 -4.139265690416E-01
C7  4.381460761415E-01  4.274301684248E-01  3.557124752756E-01
C8 -4.381460761415E-01 -4.274301684248E-01 -3.557124752756E-01
C9  3.926131808726E-01  3.156590513162E-01  2.777773254991E-01
C10 -3.926131808726E-01 -3.156590513162E-01 -2.777773254991E-01
C11  1.841691205374E-01  2.156077482538E-01  2.624937598379E-01
C12 -1.841691205374E-01 -2.156077482538E-01 -2.624937598379E-01
C13  1.377474908217E-01  1.024912332103E-01  1.888099792349E-01
C14 -1.377474908217E-01 -1.024912332103E-01 -1.888099792349E-01
C15  2.890731709587E-01  8.399683329334E-02  1.271754568672E-01
C16 -2.890731709587E-01 -8.399683329334E-02 -1.271754568672E-01
C17  4.972356163698E-01  1.856468210820E-01  1.421441884327E-01
C18 -4.972356163698E-01 -1.856468210820E-01 -1.421441884327E-01
C19 -4.576938652527E-01  2.991546109463E-01  2.180385827192E-01
C20  4.576938652527E-01 -2.991546109463E-01 -2.180385827192E-01
C21  2.443640843924E-01 -3.134890873085E-02  5.320486134926E-02
C22 -2.443640843924E-01  3.134890873085E-02 -5.320486134926E-02
C23  3.958302523010E-01 -5.080714707662E-02 -7.486031333380E-03
C24 -3.958302523010E-01  5.080714707662E-02  7.486031333380E-03
C25 -3.522175376683E-01  1.674105247936E-01  8.177105520199E-02
C26  3.522175376683E-01 -1.674105247936E-01 -8.177105520199E-02
C27 -4.497817669514E-01 -1.175744692588E-01  3.027332605264E-01
C28  4.497817669514E-01  1.175744692588E-01 -3.027332605264E-01
C29 -4.070911035593E-01 -7.680822158797E-02  3.859059204808E-01
C30  4.070911035593E-01  7.680822158797E-02 -3.859059204808E-01
C31 -2.218829332262E-01 -1.316112849364E-01  4.243655635976E-01
C32  2.218829332262E-01  1.316112849364E-01 -4.243655635976E-01
C33 -8.044053235912E-02 -2.200345351686E-01  3.779209141002E-01
C34  8.044053235912E-02  2.200345351686E-01 -3.779209141002E-01
C35 -1.147622328037E-01 -2.619466498615E-01  2.897975318368E-01
C36  1.147622328037E-01  2.619466498615E-01 -2.897975318368E-01
C37 -3.066061920961E-01 -2.119291097671E-01  2.514043479269E-01
C38  3.066061920961E-01  2.119291097671E-01 -2.514043479269E-01
C39 -3.450014106488E-01 -2.521355726829E-01  1.664942024110E-01
C40  3.450014106488E-01  2.521355726829E-01 -1.664942024110E-01
C41 -2.017664383768E-01 -3.436555417724E-01  1.161354349335E-01
C42  2.017664383768E-01  3.436555417724E-01 -1.161354349335E-01
C43 -8.017507897142E-03 -3.915410831521E-01  1.544856199556E-01
C44  8.017507897142E-03  3.915410831521E-01 -1.544856199556E-01
C45  2.836432890780E-02 -3.496544823558E-01  2.412796479566E-01
C46 -2.836432890780E-02  3.496544823558E-01 -2.412796479566E-01
C47 -2.407143480373E-01 -3.868273490033E-01  3.067218189845E-02
C48  2.407143480373E-01  3.868273490033E-01 -3.067218189845E-02
C49 -9.741724926412E-02 -4.767383016387E-01 -1.915496134242E-02
C50  9.741724926412E-02  4.767383016387E-01  1.915496134242E-02
C51  1.353288527371E-01 -4.802142331144E-01  1.051627828913E-01
C52 -1.353288527371E-01  4.802142331144E-01 -1.051627828913E-01
H53 -1.218268735017E-01  1.519271216285E-01  3.150694769462E-01
H54  1.218268735017E-01 -1.519271216285E-01 -3.150694769462E-01
H55 -3.285358113811E-02  3.481880237586E-01  4.476676986587E-01
H56  3.285358113811E-02 -3.481880237586E-01 -4.476676986587E-01
H57  3.287835485293E-01 -4.761663859177E-01  4.739083955491E-01
H58 -3.287835485293E-01  4.761663859177E-01 -4.739083955491E-01
H59 -4.026542967076E-01 -4.968344233580E-01  3.677335233722E-01
H60  4.026542967076E-01  4.968344233580E-01 -3.677335233722E-01
H61 -1.778904927490E-02  2.498229784951E-02  1.779637352637E-01
H62  1.778904927490E-02 -2.498229784951E-02 -1.779637352637E-01
H63 -3.011570092960E-01  3.752143931347E-01  2.294023010139E-01
H64  3.011570092960E-01 -3.752143931347E-01 -2.294023010139E-01
H65  8.742462573795E-02 -1.101319084885E-01  4.244153595304E-02
H66 -8.742462573795E-02  1.101319084885E-01 -4.244153595304E-02
H67 -1.937674958496E-01  2.438354591109E-01  9.324308512402E-02
H68  1.937674958496E-01 -2.438354591109E-01 -9.324308512402E-02
H69  4.103485588860E-01 -7.239342383683E-02  2.734226891640E-01
H70 -4.103485588860E-01  7.239342383683E-02 -2.734226891640E-01
H71  4.876521918739E-01  2.475756132087E-03  4.243938539193E-01
H72 -4.876521918739E-01 -2.475756132087E-03 -4.243938539193E-01
H73 -1.917982662830E-01 -9.872419310598E-02  4.918107470422E-01
H74  1.917982662830E-01  9.872419310598E-02 -4.918107470422E-01
H75  6.018969806266E-02 -2.628999464976E-01  4.071592464421E-01
H76 -6.018969806266E-02  2.628999464976E-01 -4.071592464421E-01
H77 -4.895167948127E-01 -2.141333092696E-01  1.376275356091E-01
H78  4.895167948127E-01  2.141333092696E-01 -1.376275356091E-01
H79  1.718944999976E-01 -3.897461360437E-01  2.704021907789E-01
H80 -1.718944999976E-01  3.897461360437E-01 -2.704021907789E-01
H81 -3.860805715803E-01 -3.483661720231E-01  1.519673644689E-03
H82  3.860805715803E-01  3.483661720231E-01 -1.519673644689E-03
H83  2.807611517862E-01  4.819233349234E-01  1.342945574467E-01
H84 -2.807611517862E-01 -4.819233349234E-01 -1.342945574467E-01


#===END

data_OPT_STEP_20

_symmetry_space_group_name_H-M 'P 1'
_cell_length_a      6.32714875
_cell_length_b      7.82856488
_cell_length_c     16.55811937
_cell_angle_alpha   98.631383
_cell_angle_beta   92.203953
_cell_angle_gamma   95.618750

loop_
_atom_site_label
_atom_site_fract_x
_atom_site_fract_y
_atom_site_fract_z
C1  3.281092400158E-02  2.295090478983E-01  3.263746426725E-01
C2 -3.281092400158E-02 -2.295090478983E-01 -3.263746426725E-01
C3  8.349666311717E-02  3.382221981626E-01  3.992322462749E-01
C4 -8.349666311717E-02 -3.382221981626E-01 -3.992322462749E-01
C5  2.895860752050E-01  4.378706430095E-01  4.143244822560E-01
C6 -2.895860752050E-01 -4.378706430095E-01 -4.143244822560E-01
C7  4.389777284982E-01  4.265218147499E-01  3.560382465529E-01
C8 -4.389777284982E-01 -4.265218147499E-01 -3.560382465529E-01
C9  3.939642185353E-01  3.130791333210E-01  2.784794609497E-01
C10 -3.939642185353E-01 -3.130791333210E-01 -2.784794609497E-01
C11  1.849810500191E-01  2.122566664498E-01  2.632913633545E-01
C12 -1.849810500191E-01 -2.122566664498E-01 -2.632913633545E-01
C13  1.376456795628E-01  1.003083812613E-01  1.892564347559E-01
C14 -1.376456795628E-01 -1.003083812613E-01 -1.892564347559E-01
C15  2.889206711430E-01  8.291239181986E-02  1.273817038824E-01
C16 -2.889206711430E-01 -8.291239181986E-02 -1.273817038824E-01
C17  4.983152041202E-01  1.841586985251E-01  1.425798749246E-01
C18 -4.983152041202E-01 -1.841586985251E-01 -1.425798749246E-01
C19 -4.566130080291E-01  2.981898640842E-01  2.183893343049E-01
C20  4.566130080291E-01 -2.981898640842E-01 -2.183893343049E-01
C21  2.434512625650E-01 -3.169721425324E-02  5.313839327994E-02
C22 -2.434512625650E-01  3.169721425324E-02 -5.313839327994E-02
C23  3.952222393171E-01 -5.071694909770E-02 -7.600220283389E-03
C24 -3.952222393171E-01  5.071694909770E-02  7.600220283389E-03
C25 -3.508647453649E-01  1.665886146801E-01  8.214679889256E-02
C26  3.508647453649E-01 -1.665886146801E-01 -8.214679889256E-02
C27 -4.472109520555E-01 -1.135778973707E-01  3.030361236866E-01
C28  4.472109520555E-01  1.135778973707E-01 -3.030361236866E-01
C29 -4.046337373144E-01 -7.342238191739E-02  3.862543934782E-01
C30  4.046337373144E-01  7.342238191739E-02 -3.862543934782E-01
C31 -2.175648479655E-01 -1.267841377971E-01  4.243398443064E-01
C32  2.175648479655E-01  1.267841377971E-01 -4.243398443064E-01
C33 -7.688590437089E-02 -2.168994726945E-01  3.778190453721E-01
C34  7.688590437089E-02  2.168994726945E-01 -3.778190453721E-01
C35 -1.130873330059E-01 -2.605825276005E-01  2.898751790068E-01
C36  1.130873330059E-01  2.605825276005E-01 -2.898751790068E-01
C37 -3.055698204035E-01 -2.106747971613E-01  2.517644994550E-01
C38  3.055698204035E-01  2.106747971613E-01 -2.517644994550E-01
C39 -3.457611057706E-01 -2.528981636460E-01  1.670158821683E-01
C40  3.457611057706E-01  2.528981636460E-01 -1.670158821683E-01
C41 -2.024743836655E-01 -3.445682645179E-01  1.164609632198E-01
C42  2.024743836655E-01  3.445682645179E-01 -1.164609632198E-01
C43 -8.102422526364E-03 -3.923352893791E-01  1.545542482338E-01
C44  8.102422526364E-03  3.923352893791E-01 -1.545542482338E-01
C45  2.927508933364E-02 -3.494920677873E-01  2.412210768623E-01
C46 -2.927508933364E-02  3.494920677873E-01 -2.412210768623E-01
C47 -2.418628895029E-01 -3.877022961330E-01  3.102577699648E-02
C48  2.418628895029E-01  3.877022961330E-01 -3.102577699648E-02
C49 -9.771491655331E-02 -4.767338507857E-01 -1.903882581821E-02
C50  9.771491655331E-02  4.767338507857E-01  1.903882581821E-02
C51  1.359035579628E-01 -4.803494744317E-01  1.050098330939E-01
C52 -1.359035579628E-01  4.803494744317E-01 -1.050098330939E-01
H53 -1.243658395684E-01  1.521615861315E-01  3.150154978058E-01
H54  1.243658395684E-01 -1.521615861315E-01 -3.150154978058E-01
H55 -3.348389287851E-02  3.478092822468E-01  4.477978453302E-01
H56  3.348389287851E-02 -3.478092822468E-01 -4.477978453302E-01
H57  3.286831727009E-01 -4.766525160317E-01  4.740523778835E-01
H58 -3.286831727009E-01  4.766525160317E-01 -4.740523778835E-01
H59 -4.024127753623E-01 -4.964606720150E-01  3.677701577987E-01
H60  4.024127753623E-01  4.964606720150E-01 -3.677701577987E-01
H61 -1.914380028484E-02  2.274437827979E-02  1.782313340583E-01
H62  1.914380028484E-02 -2.274437827979E-02 -1.782313340583E-01
H63 -2.993455276385E-01  3.748973022925E-01  2.297590915323E-01
H64  2.993455276385E-01 -3.748973022925E-01 -2.297590915323E-01
H65  8.528438479087E-02 -1.092290110755E-01  4.194326695704E-02
H66 -8.528438479087E-02  1.092290110755E-01 -4.194326695704E-02
H67 -1.924193049197E-01  2.436209208612E-01  9.353936539138E-02
H68  1.924193049197E-01 -2.436209208612E-01 -9.353936539138E-02
H69  4.116558230010E-01 -6.938142293651E-02  2.738185595816E-01
H70 -4.116558230010E-01  6.938142293651E-02 -2.738185595816E-01
H71  4.882702278439E-01  3.926252109568E-03  4.247232755240E-01
H72 -4.882702278439E-01 -3.926252109568E-03 -4.247232755240E-01
H73 -1.872694110297E-01 -9.429095430470E-02  4.916663256623E-01
H74  1.872694110297E-01  9.429095430470E-02 -4.916663256623E-01
H75  6.465982397881E-02 -2.593407809856E-01  4.069910045610E-01
H76 -6.465982397881E-02  2.593407809856E-01 -4.069910045610E-01
H77 -4.910368094207E-01 -2.148952452921E-01  1.382346782955E-01
H78  4.910368094207E-01  2.148952452921E-01 -1.382346782955E-01
H79  1.739810646935E-01 -3.885986696237E-01  2.702011539549E-01
H80 -1.739810646935E-01  3.885986696237E-01 -2.702011539549E-01
H81 -3.885699404158E-01 -3.506928521098E-01  2.116560069841E-03
H82  3.885699404158E-01  3.506928521098E-01 -2.116560069841E-03
H83  2.825320835018E-01  4.830242357626E-01  1.339120178512E-01
H84 -2.825320835018E-01 -4.830242357626E-01 -1.339120178512E-01


#===END

data_OPT_STEP_21

_symmetry_space_group_name_H-M 'P 1'
_cell_length_a      6.34837315
_cell_length_b      7.82746155
_cell_length_c     16.53719335
_cell_angle_alpha   98.589964
_cell_angle_beta   92.091371
_cell_angle_gamma   96.033143

loop_
_atom_site_label
_atom_site_fract_x
_atom_site_fract_y
_atom_site_fract_z
C1  3.426828786865E-02  2.301559869457E-01  3.265231788551E-01
C2 -3.426828786865E-02 -2.301559869457E-01 -3.265231788551E-01
C3  8.558370909809E-02  3.386230494845E-01  3.995183434893E-01
C4 -8.558370909809E-02 -3.386230494845E-01 -3.995183434893E-01
C5  2.915188363531E-01  4.389588402656E-01  4.144165574584E-01
C6 -2.915188363531E-01 -4.389588402656E-01 -4.144165574584E-01
C7  4.408409257337E-01  4.271792378444E-01  3.561360674217E-01
C8 -4.408409257337E-01 -4.271792378444E-01 -3.561360674217E-01
C9  3.953525096728E-01  3.135544675462E-01  2.785942110493E-01
C10 -3.953525096728E-01 -3.135544675462E-01 -2.785942110493E-01
C11  1.863435958256E-01  2.123909143338E-01  2.634761412348E-01
C12 -1.863435958256E-01 -2.123909143338E-01 -2.634761412348E-01
C13  1.387591821657E-01  1.001608973694E-01  1.894177188933E-01
C14 -1.387591821657E-01 -1.001608973694E-01 -1.894177188933E-01
C15  2.898088846168E-01  8.252479570010E-02  1.275576704929E-01
C16 -2.898088846168E-01 -8.252479570010E-02 -1.275576704929E-01
C17  4.997070669701E-01  1.832800672662E-01  1.429142052801E-01
C18 -4.997070669701E-01 -1.832800672662E-01 -1.429142052801E-01
C19 -4.552380668916E-01  2.982802853979E-01  2.185514308500E-01
C20  4.552380668916E-01 -2.982802853979E-01 -2.185514308500E-01
C21  2.439295883629E-01 -3.223379485387E-02  5.326372010098E-02
C22 -2.439295883629E-01  3.223379485387E-02 -5.326372010098E-02
C23  3.949832273250E-01 -5.056721891351E-02 -7.674777086536E-03
C24 -3.949832273250E-01  5.056721891351E-02  7.674777086536E-03
C25 -3.491000962086E-01  1.645657963100E-01  8.277448737389E-02
C26  3.491000962086E-01 -1.645657963100E-01 -8.277448737389E-02
C27 -4.490655226759E-01 -1.180938854428E-01  3.031818827914E-01
C28  4.490655226759E-01  1.180938854428E-01 -3.031818827914E-01
C29 -4.058848763768E-01 -7.577604619618E-02  3.864220799501E-01
C30  4.058848763768E-01  7.577604619618E-02 -3.864220799501E-01
C31 -2.174903100312E-01 -1.253167546259E-01  4.244779024718E-01
C32  2.174903100311E-01  1.253167546259E-01 -4.244779024718E-01
C33 -7.640489688116E-02 -2.141371993884E-01  3.779571856177E-01
C34  7.640489688116E-02  2.141371993884E-01 -3.779571856177E-01
C35 -1.134369641734E-01 -2.599153250357E-01  2.900378841741E-01
C36  1.134369641734E-01  2.599153250357E-01 -2.900378841741E-01
C37 -3.055464043916E-01 -2.116478984122E-01  2.518109251457E-01
C38  3.055464043916E-01  2.116478984122E-01 -2.518109251457E-01
C39 -3.439990848852E-01 -2.523745320511E-01  1.668259144758E-01
C40  3.439990848852E-01  2.523745320511E-01 -1.668259144758E-01
C41 -2.010259843475E-01 -3.434940389369E-01  1.163178384709E-01
C42  2.010259843475E-01  3.434940389369E-01 -1.163178384709E-01
C43 -9.362826181016E-03 -3.930829401282E-01  1.547740581734E-01
C44  9.362826181016E-03  3.930829401282E-01 -1.547740581734E-01
C45  2.854048262394E-02 -3.483670206617E-01  2.414280760796E-01
C46 -2.854048262394E-02  3.483670206617E-01 -2.414280760796E-01
C47 -2.376408781537E-01 -3.834693036607E-01  3.053733947507E-02
C48  2.376408781537E-01  3.834693036607E-01 -3.053733947507E-02
C49 -9.563798490510E-02 -4.747584931114E-01 -1.929396063321E-02
C50  9.563798490510E-02  4.747584931114E-01  1.929396063321E-02
C51  1.330739846853E-01 -4.824797724206E-01  1.054127178506E-01
C52 -1.330739846853E-01  4.824797724206E-01 -1.054127178506E-01
H53 -1.240237249994E-01  1.539369083337E-01  3.149198588892E-01
H54  1.240237249994E-01 -1.539369083337E-01 -3.149198588892E-01
H55 -3.096320818230E-02  3.486333224117E-01  4.480042396034E-01
H56  3.096320818230E-02 -3.486333224117E-01 -4.480042396034E-01
H57  3.305454803070E-01 -4.753770855115E-01  4.740458821034E-01
H58 -3.305454803070E-01  4.753770855115E-01 -4.740458821034E-01
H59 -4.011757274728E-01 -4.950739498933E-01  3.676688021679E-01
H60  4.011757274728E-01  4.950739498933E-01 -3.676688021679E-01
H61 -1.881538044519E-02  2.233537166150E-02  1.782724981604E-01
H62  1.881538044519E-02 -2.233537166150E-02 -1.782724981604E-01
H63 -2.972267131437E-01  3.750171718138E-01  2.300340321537E-01
H64  2.972267131437E-01 -3.750171718138E-01 -2.300340321537E-01
H65  8.558425314046E-02 -1.097279228327E-01  4.198121627382E-02
H66 -8.558425314046E-02  1.097279228327E-01 -4.198121627382E-02
H67 -1.904715162897E-01  2.411976929389E-01  9.429945514780E-02
H68  1.904715162897E-01 -2.411976929389E-01 -9.429945514780E-02
H69  4.058567208961E-01 -8.063735497506E-02  2.741179636805E-01
H70 -4.058567208961E-01  8.063735497506E-02 -2.741179636805E-01
H71  4.857527568956E-01 -1.204645096893E-04  4.246754064240E-01
H72 -4.857527568956E-01  1.204645096894E-04 -4.246754064240E-01
H73 -1.873631607520E-01 -9.261619341281E-02  4.918261653474E-01
H74  1.873631607520E-01  9.261619341281E-02 -4.918261653474E-01
H75  6.601610298174E-02 -2.545847672609E-01  4.072516435591E-01
H76 -6.601610298174E-02  2.545847672609E-01 -4.072516435591E-01
H77 -4.878786467791E-01 -2.129281927260E-01  1.376933139537E-01
H78  4.878786467791E-01  2.129281927260E-01 -1.376933139537E-01
H79  1.740785359285E-01 -3.852306958084E-01  2.705102532813E-01
H80 -1.740785359285E-01  3.852306958084E-01 -2.705102532813E-01
H81 -3.818630049890E-01 -3.440277275660E-01  1.297598537484E-03
H82  3.818630049890E-01  3.440277275660E-01 -1.297598537484E-03
H83  2.780847545730E-01  4.797276422778E-01  1.345649373329E-01
H84 -2.780847545730E-01 -4.797276422778E-01 -1.345649373329E-01


#===END

data_OPT_STEP_22

_symmetry_space_group_name_H-M 'P 1'
_cell_length_a      6.37075620
_cell_length_b      7.79220347
_cell_length_c     16.53126240
_cell_angle_alpha   98.489841
_cell_angle_beta   91.952776
_cell_angle_gamma   96.257461

loop_
_atom_site_label
_atom_site_fract_x
_atom_site_fract_y
_atom_site_fract_z
C1  3.758171480338E-02  2.301148688695E-01  3.272039184771E-01
C2 -3.758171480338E-02 -2.301148688695E-01 -3.272039184771E-01
C3  8.874213916759E-02  3.397524287349E-01  3.999250746270E-01
C4 -8.874213916759E-02 -3.397524287349E-01 -3.999250746270E-01
C5  2.945478263193E-01  4.404129927516E-01  4.145667306702E-01
C6 -2.945478263193E-01 -4.404129927516E-01 -4.145667306702E-01
C7  4.443930416256E-01  4.268669154173E-01  3.565410502057E-01
C8 -4.443930416256E-01 -4.268669154173E-01 -3.565410502057E-01
C9  3.978383558979E-01  3.138830611547E-01  2.788811223744E-01
C10 -3.978383558979E-01 -3.138830611547E-01 -2.788811223744E-01
C11  1.883588383682E-01  2.135678012843E-01  2.637098137020E-01
C12 -1.883588383682E-01 -2.135678012843E-01 -2.637098137020E-01
C13  1.398827572955E-01  1.022113264867E-01  1.894261433666E-01
C14 -1.398827572955E-01 -1.022113264867E-01 -1.894261433666E-01
C15  2.917505986484E-01  8.155864510589E-02  1.281308359666E-01
C16 -2.917505986484E-01 -8.155864510589E-02 -1.281308359666E-01
C17 -4.984151778644E-01  1.824285750582E-01  1.432823545687E-01
C18  4.984151778644E-01 -1.824285750582E-01 -1.432823545687E-01
C19 -4.515814883214E-01  2.955225109425E-01  2.194318964707E-01
C20  4.515814883214E-01 -2.955225109425E-01 -2.194318964707E-01
C21  2.447887565233E-01 -3.239901010014E-02  5.361665921468E-02
C22 -2.447887565233E-01  3.239901010014E-02 -5.361665921468E-02
C23  3.950681930593E-01 -5.074983113975E-02 -7.532817974012E-03
C24 -3.950681930593E-01  5.074983113975E-02  7.532817974012E-03
C25 -3.475342931839E-01  1.631170342317E-01  8.309548887846E-02
C26  3.475342931839E-01 -1.631170342317E-01 -8.309548887846E-02
C27 -4.469506039429E-01 -1.167734476158E-01  3.032032327250E-01
C28  4.469506039429E-01  1.167734476158E-01 -3.032032327250E-01
C29 -4.058880201858E-01 -7.661575432166E-02  3.865760052307E-01
C30  4.058880201858E-01  7.661575432166E-02 -3.865760052307E-01
C31 -2.180933840032E-01 -1.256357760607E-01  4.245788306810E-01
C32  2.180933840032E-01  1.256357760607E-01 -4.245788306810E-01
C33 -7.693275847043E-02 -2.139319609660E-01  3.779968275558E-01
C34  7.693275847043E-02  2.139319609660E-01 -3.779968275558E-01
C35 -1.138722867239E-01 -2.604600148474E-01  2.901387274677E-01
C36  1.138722867239E-01  2.604600148474E-01 -2.901387274677E-01
C37 -3.044875138051E-01 -2.112321220633E-01  2.518763070999E-01
C38  3.044875138051E-01  2.112321220633E-01 -2.518763070999E-01
C39 -3.435203538547E-01 -2.535176659403E-01  1.670434807914E-01
C40  3.435203538547E-01  2.535176659403E-01 -1.670434807914E-01
C41 -2.014634428297E-01 -3.451180065778E-01  1.165162839661E-01
C42  2.014634428297E-01  3.451180065778E-01 -1.165162839661E-01
C43 -9.701618959410E-03 -3.935623732507E-01  1.548461932620E-01
C44  9.701618959410E-03  3.935623732507E-01 -1.548461932620E-01
C45  2.799406437189E-02 -3.486513300404E-01  2.414725119799E-01
C46 -2.799406437189E-02  3.486513300404E-01 -2.414725119799E-01
C47 -2.398447080360E-01 -3.880439344242E-01  3.095467495827E-02
C48  2.398447080360E-01  3.880439344242E-01 -3.095467495827E-02
C49 -9.612285701728E-02 -4.758984096544E-01 -1.917760595132E-02
C50  9.612285701728E-02  4.758984096544E-01  1.917760595132E-02
C51  1.331881733049E-01 -4.817261419402E-01  1.053352066061E-01
C52 -1.331881733049E-01  4.817261419402E-01 -1.053352066061E-01
H53 -1.203979793943E-01  1.523703572614E-01  3.160522148054E-01
H54  1.203979793943E-01 -1.523703572614E-01 -3.160522148054E-01
H55 -2.775335204348E-02  3.509228335373E-01  4.482934070338E-01
H56  2.775335204348E-02 -3.509228335373E-01 -4.482934070338E-01
H57  3.332413832307E-01 -4.728040140554E-01  4.739275028899E-01
H58 -3.332413832307E-01  4.728040140554E-01 -4.739275028899E-01
H59 -3.978731931786E-01 -4.950962681519E-01  3.678765786111E-01
H60  3.978731931786E-01  4.950962681519E-01 -3.678765786111E-01
H61 -1.930475528885E-02  2.567748256907E-02  1.778894188308E-01
H62  1.930475528885E-02 -2.567748256907E-02 -1.778894188308E-01
H63 -2.911303921339E-01  3.694093121869E-01  2.316496286040E-01
H64  2.911303921339E-01 -3.694093121869E-01 -2.316496286040E-01
H65  8.659286500299E-02 -1.105257374568E-01  4.255082698420E-02
H66 -8.659286500299E-02  1.105257374568E-01 -4.255082698420E-02
H67 -1.886436172030E-01  2.394496707759E-01  9.461100165591E-02
H68  1.886436172030E-01 -2.394496707759E-01 -9.461100165591E-02
H69  4.087056038933E-01 -7.846209876564E-02  2.739354032953E-01
H70 -4.087056038933E-01  7.846209876564E-02 -2.739354032953E-01
H71  4.846187799417E-01 -1.974699746716E-03  4.247357007474E-01
H72 -4.846187799417E-01  1.974699746716E-03 -4.247357007474E-01
H73 -1.877220353706E-01 -9.230443203777E-02  4.919391213220E-01
H74  1.877220353706E-01  9.230443203777E-02 -4.919391213220E-01
H75  6.683091688613E-02 -2.526223802306E-01  4.072708732250E-01
H76 -6.683091688613E-02  2.526223802306E-01 -4.072708732250E-01
H77 -4.869386614614E-01 -2.132432618535E-01  1.377599549712E-01
H78  4.869386614614E-01  2.132432618535E-01 -1.377599549712E-01
H79  1.732225476876E-01 -3.858049300751E-01  2.706729313661E-01
H80 -1.732225476876E-01  3.858049300751E-01 -2.706729313661E-01
H81 -3.854572129301E-01 -3.511024747885E-01  1.886219218994E-03
H82  3.854572129301E-01  3.511024747885E-01 -1.886219218994E-03
H83  2.778299523533E-01  4.801880065278E-01  1.345147652329E-01
H84 -2.778299523533E-01 -4.801880065278E-01 -1.345147652329E-01


#===END

data_OPT_STEP_23

_symmetry_space_group_name_H-M 'P 1'
_cell_length_a      6.37840409
_cell_length_b      7.79332880
_cell_length_c     16.52488575
_cell_angle_alpha   98.475983
_cell_angle_beta   91.962119
_cell_angle_gamma   96.256030

loop_
_atom_site_label
_atom_site_fract_x
_atom_site_fract_y
_atom_site_fract_z
C1  3.823592520929E-02  2.305659746068E-01  3.272686541354E-01
C2 -3.823592520929E-02 -2.305659746068E-01 -3.272686541354E-01
C3  8.926535912364E-02  3.403843892660E-01  3.999530610918E-01
C4 -8.926535912364E-02 -3.403843892660E-01 -3.999530610918E-01
C5  2.949687634345E-01  4.408063272187E-01  4.146246658291E-01
C6 -2.949687634345E-01 -4.408063272187E-01 -4.146246658291E-01
C7  4.445643969227E-01  4.273347705072E-01  3.565438387190E-01
C8 -4.445643969227E-01 -4.273347705072E-01 -3.565438387190E-01
C9  3.983966660397E-01  3.135190522026E-01  2.790687414605E-01
C10 -3.983966660397E-01 -3.135190522026E-01 -2.790687414605E-01
C11  1.891129753527E-01  2.133332743518E-01  2.638995162443E-01
C12 -1.891129753527E-01 -2.133332743518E-01 -2.638995162443E-01
C13  1.406684563701E-01  1.019843499786E-01  1.896087624873E-01
C14 -1.406684563701E-01 -1.019843499786E-01 -1.896087624873E-01
C15  2.918400919309E-01  8.205220191828E-02  1.280900179925E-01
C16 -2.918400919309E-01 -8.205220191828E-02 -1.280900179925E-01
C17 -4.984134922479E-01  1.825833025160E-01  1.432868252988E-01
C18  4.984134922479E-01 -1.825833025160E-01 -1.432868252988E-01
C19 -4.515208717465E-01  2.955788063094E-01  2.194773476859E-01
C20  4.515208717465E-01 -2.955788063094E-01 -2.194773476859E-01
C21  2.444275377926E-01 -3.101774348730E-02  5.334959773358E-02
C22 -2.444275377926E-01  3.101774348730E-02 -5.334959773358E-02
C23  3.949822768253E-01 -5.034033737317E-02 -7.605637143530E-03
C24 -3.949822768253E-01  5.034033737317E-02  7.605637143530E-03
C25 -3.478632154407E-01  1.634607957042E-01  8.299606580066E-02
C26  3.478632154407E-01 -1.634607957042E-01 -8.299606580066E-02
C27 -4.469026847879E-01 -1.172568750201E-01  3.031741296002E-01
C28  4.469026847879E-01  1.172568750201E-01 -3.031741296002E-01
C29 -4.060878966158E-01 -7.710955283421E-02  3.865649555410E-01
C30  4.060878966158E-01  7.710955283421E-02 -3.865649555410E-01
C31 -2.185421609700E-01 -1.259385665013E-01  4.246422888094E-01
C32  2.185421609700E-01  1.259385665013E-01 -4.246422888094E-01
C33 -7.734472824025E-02 -2.139962863388E-01  3.780820604792E-01
C34  7.734472824025E-02  2.139962863388E-01 -3.780820604792E-01
C35 -1.137812668084E-01 -2.602157649870E-01  2.901692200014E-01
C36  1.137812668084E-01  2.602157649870E-01 -2.901692200014E-01
C37 -3.043165108984E-01 -2.112857775943E-01  2.518462888878E-01
C38  3.043165108984E-01  2.112857775943E-01 -2.518462888878E-01
C39 -3.433753804647E-01 -2.539216317998E-01  1.670222654203E-01
C40  3.433753804647E-01  2.539216317998E-01 -1.670222654203E-01
C41 -2.007888375422E-01 -3.444553399279E-01  1.164561336689E-01
C42  2.007888375422E-01  3.444553399279E-01 -1.164561336689E-01
C43 -9.346697054859E-03 -3.930144844516E-01  1.548554693194E-01
C44  9.346697054859E-03  3.930144844516E-01 -1.548554693194E-01
C45  2.792053084060E-02 -3.485491557072E-01  2.415443449990E-01
C46 -2.792053084060E-02  3.485491557072E-01 -2.415443449990E-01
C47 -2.390208429364E-01 -3.873372070585E-01  3.087213183673E-02
C48  2.390208429364E-01  3.873372070585E-01 -3.087213183673E-02
C49 -9.590379107652E-02 -4.757549926644E-01 -1.921195347804E-02
C50  9.590379107652E-02  4.757549926644E-01  1.921195347804E-02
C51  1.331499096592E-01 -4.815323459942E-01  1.053790149421E-01
C52 -1.331499096592E-01  4.815323459942E-01 -1.053790149421E-01
H53 -1.195679051862E-01  1.526907374983E-01  3.161674663715E-01
H54  1.195679051862E-01 -1.526907374983E-01 -3.161674663715E-01
H55 -2.715428912537E-02  3.517200824537E-01  4.483166254729E-01
H56  2.715428912537E-02 -3.517200824537E-01 -4.483166254729E-01
H57  3.336170188135E-01 -4.722761912148E-01  4.739643393174E-01
H58 -3.336170188135E-01  4.722761912148E-01 -4.739643393174E-01
H59 -3.979517514889E-01 -4.944429254410E-01  3.678005229236E-01
H60  3.979517514889E-01  4.944429254410E-01 -3.678005229236E-01
H61 -1.834230110636E-02  2.522622686328E-02  1.781369391067E-01
H62  1.834230110636E-02 -2.522622686328E-02 -1.781369391067E-01
H63 -2.914967578372E-01  3.700937589742E-01  2.315403123873E-01
H64  2.914967578372E-01 -3.700937589742E-01 -2.315403123873E-01
H65  8.598445325598E-02 -1.083760517035E-01  4.211621599764E-02
H66 -8.598445325598E-02  1.083760517035E-01 -4.211621599764E-02
H67 -1.890276630973E-01  2.396537757694E-01  9.452790675618E-02
H68  1.890276630973E-01 -2.396537757694E-01 -9.452790675618E-02
H69  4.091624154075E-01 -7.858037307646E-02  2.738163269903E-01
H70 -4.091624154075E-01  7.858037307646E-02 -2.738163269903E-01
H71  4.841906384377E-01 -2.732415192958E-03  4.246928797840E-01
H72 -4.841906384377E-01  2.732415192959E-03 -4.246928797840E-01
H73 -1.877550060470E-01 -9.182138793431E-02  4.919936360675E-01
H74  1.877550060470E-01  9.182138793431E-02 -4.919936360675E-01
H75  6.683004193946E-02 -2.519842328807E-01  4.073662583872E-01
H76 -6.683004193946E-02  2.519842328807E-01 -4.073662583872E-01
H77 -4.875467580387E-01 -2.149654543295E-01  1.377656268925E-01
H78  4.875467580387E-01  2.149654543295E-01 -1.377656268925E-01
H79  1.728294172275E-01 -3.859672436894E-01  2.708245034352E-01
H80 -1.728294172275E-01  3.859672436894E-01 -2.708245034352E-01
H81 -3.842048952713E-01 -3.500205655866E-01  1.743584630089E-03
H82  3.842048952713E-01  3.500205655866E-01 -1.743584630089E-03
H83  2.777336783710E-01  4.804750105596E-01  1.345913987486E-01
H84 -2.777336783710E-01 -4.804750105596E-01 -1.345913987486E-01


#===END

data_OPT_STEP_24

_symmetry_space_group_name_H-M 'P 1'
_cell_length_a      6.37146041
_cell_length_b      7.79951219
_cell_length_c     16.51646665
_cell_angle_alpha   98.466164
_cell_angle_beta   92.081420
_cell_angle_gamma   96.096095

loop_
_atom_site_label
_atom_site_fract_x
_atom_site_fract_y
_atom_site_fract_z
C1  3.731880450451E-02  2.311360975382E-01  3.271173531405E-01
C2 -3.731880450451E-02 -2.311360975382E-01 -3.271173531405E-01
C3  8.837279732292E-02  3.406359285541E-01  3.999070678538E-01
C4 -8.837279732292E-02 -3.406359285541E-01 -3.999070678538E-01
C5  2.943844329558E-01  4.403064898014E-01  4.148208740033E-01
C6 -2.943844329558E-01 -4.403064898014E-01 -4.148208740033E-01
C7  4.438191057536E-01  4.271644758604E-01  3.566740351812E-01
C8 -4.438191057536E-01 -4.271644758604E-01 -3.566740351812E-01
C9  3.979608882510E-01  3.128552654638E-01  2.792739824886E-01
C10 -3.979608882510E-01 -3.128552654638E-01 -2.792739824886E-01
C11  1.885764042881E-01  2.131691681450E-01  2.639309752139E-01
C12 -1.885764042881E-01 -2.131691681450E-01 -2.639309752139E-01
C13  1.398159663807E-01  1.029163205455E-01  1.893620673513E-01
C14 -1.398159663807E-01 -1.029163205455E-01 -1.893620673513E-01
C15  2.909811344230E-01  8.293587151321E-02  1.278533919296E-01
C16 -2.909811344230E-01 -8.293587151321E-02 -1.278533919296E-01
C17 -4.987291805127E-01  1.821422467414E-01  1.434260119793E-01
C18  4.987291805127E-01 -1.821422467414E-01 -1.434260119793E-01
C19 -4.532231252874E-01  2.971568681668E-01  2.191520660102E-01
C20  4.532231252874E-01 -2.971568681668E-01 -2.191520660102E-01
C21  2.445976722930E-01 -3.144089502167E-02  5.341080631833E-02
C22 -2.445976722930E-01  3.144089502167E-02 -5.341080631833E-02
C23  3.948234078053E-01 -4.983540101160E-02 -7.747172484566E-03
C24 -3.948234078053E-01  4.983540101160E-02  7.747172484566E-03
C25 -3.482010886660E-01  1.633145222392E-01  8.307128998660E-02
C26  3.482010886660E-01 -1.633145222392E-01 -8.307128998660E-02
C27 -4.464818689591E-01 -1.173597162242E-01  3.033121955068E-01
C28  4.464818689591E-01  1.173597162242E-01 -3.033121955068E-01
C29 -4.045373116871E-01 -7.591348871588E-02  3.866235439533E-01
C30  4.045373116871E-01  7.591348871588E-02 -3.866235439533E-01
C31 -2.175498567903E-01 -1.261606408081E-01  4.248639210855E-01
C32  2.175498567903E-01  1.261606408081E-01 -4.248639210855E-01
C33 -7.596066873512E-02 -2.137335471090E-01  3.782551944271E-01
C34  7.596066873512E-02  2.137335471090E-01 -3.782551944271E-01
C35 -1.118900407785E-01 -2.590010573997E-01  2.902346889749E-01
C36  1.118900407785E-01  2.590010573997E-01 -2.902346889749E-01
C37 -3.034869297320E-01 -2.107493416909E-01  2.519051417826E-01
C38  3.034869297320E-01  2.107493416909E-01 -2.519051417826E-01
C39 -3.425969146354E-01 -2.530304891366E-01  1.670390405467E-01
C40  3.425969146354E-01  2.530304891366E-01 -1.670390405467E-01
C41 -2.004426667542E-01 -3.441838671723E-01  1.165005267360E-01
C42  2.004426667542E-01  3.441838671723E-01 -1.165005267360E-01
C43 -7.887812806412E-03 -3.920204186502E-01  1.548710702477E-01
C44  7.887812806412E-03  3.920204186502E-01 -1.548710702477E-01
C45  2.953869058356E-02 -3.480058917127E-01  2.416357967103E-01
C46 -2.953869058356E-02  3.480058917127E-01 -2.416357967103E-01
C47 -2.395091753750E-01 -3.877061898129E-01  3.094205197840E-02
C48  2.395091753750E-01  3.877061898129E-01 -3.094205197840E-02
C49 -9.655902441245E-02 -4.762795097041E-01 -1.917554461620E-02
C50  9.655902441245E-02  4.762795097041E-01  1.917554461620E-02
C51  1.343428523788E-01 -4.809535108445E-01  1.053666330892E-01
C52 -1.343428523788E-01  4.809535108445E-01 -1.053666330892E-01
H53 -1.209937815443E-01  1.544164654753E-01  3.157320699148E-01
H54  1.209937815443E-01 -1.544164654753E-01 -3.157320699148E-01
H55 -2.839287429550E-02  3.525696028443E-01  4.481419861687E-01
H56  2.839287429550E-02 -3.525696028443E-01 -4.481419861687E-01
H57  3.327677688079E-01 -4.722843190652E-01  4.740678283404E-01
H58 -3.327677688079E-01  4.722843190652E-01 -4.740678283404E-01
H59 -3.978906650620E-01 -4.962273336364E-01  3.682884483089E-01
H60  3.978906650620E-01  4.962273336364E-01 -3.682884483089E-01
H61 -1.966906408513E-02  2.733789201169E-02  1.776129194742E-01
H62  1.966906408513E-02 -2.733789201169E-02 -1.776129194742E-01
H63 -2.947604019901E-01  3.742298714224E-01  2.306309030807E-01
H64  2.947604019901E-01 -3.742298714224E-01 -2.306309030807E-01
H65  8.618334411657E-02 -1.085130533871E-01  4.208768113401E-02
H66 -8.618334411657E-02  1.085130533871E-01 -4.208768113401E-02
H67 -1.889079029088E-01  2.385279452066E-01  9.488855131275E-02
H68  1.889079029088E-01 -2.385279452066E-01 -9.488855131275E-02
H69  4.095398776734E-01 -7.839089586456E-02  2.739201033342E-01
H70 -4.095398776734E-01  7.839089586456E-02 -2.739201033342E-01
H71  4.854553582174E-01 -1.612041253470E-03  4.247287426746E-01
H72 -4.854553582174E-01  1.612041253470E-03 -4.247287426746E-01
H73 -1.867626509369E-01 -9.239188299854E-02  4.922969858036E-01
H74  1.867626509369E-01  9.239188299855E-02 -4.922969858036E-01
H75  6.930506473812E-02 -2.508136395130E-01  4.074791486086E-01
H76 -6.930506473812E-02  2.508136395130E-01 -4.074791486086E-01
H77 -4.880688466301E-01 -2.156206708554E-01  1.378598559294E-01
H78  4.880688466301E-01  2.156206708554E-01 -1.378598559294E-01
H79  1.746839643698E-01 -3.855058239605E-01  2.709495935155E-01
H80 -1.746839643698E-01  3.855058239605E-01 -2.709495935155E-01
H81 -3.857761426911E-01 -3.516513309468E-01  1.903389670858E-03
H82  3.857761426911E-01  3.516513309468E-01 -1.903389670858E-03
H83  2.801986459348E-01  4.824223393839E-01  1.344877557821E-01
H84 -2.801986459348E-01 -4.824223393839E-01 -1.344877557821E-01


#===END

data_OPT_STEP_25

_symmetry_space_group_name_H-M 'P 1'
_cell_length_a      6.39055258
_cell_length_b      7.79354489
_cell_length_c     16.49075649
_cell_angle_alpha   98.332383
_cell_angle_beta   92.136851
_cell_angle_gamma   96.083237

loop_
_atom_site_label
_atom_site_fract_x
_atom_site_fract_y
_atom_site_fract_z
C1  3.853986649502E-02  2.323757653591E-01  3.270509195226E-01
C2 -3.853986649502E-02 -2.323757653591E-01 -3.270509195226E-01
C3  8.951033980400E-02  3.420753029468E-01  3.998197653293E-01
C4 -8.951033980400E-02 -3.420753029468E-01 -3.998197653293E-01
C5  2.950162913188E-01  4.415098060419E-01  4.147446421649E-01
C6 -2.950162913188E-01 -4.415098060419E-01 -4.147446421649E-01
C7  4.440734181729E-01  4.279387343410E-01  3.566339602940E-01
C8 -4.440734181729E-01 -4.279387343410E-01 -3.566339602940E-01
C9  3.982935218732E-01  3.134644911341E-01  2.792374976668E-01
C10 -3.982935218732E-01 -3.134644911341E-01 -2.792374976668E-01
C11  1.896327950698E-01  2.136039024763E-01  2.639832790077E-01
C12 -1.896327950698E-01 -2.136039024763E-01 -2.639832790077E-01
C13  1.415050479803E-01  1.022300275887E-01  1.896663276961E-01
C14 -1.415050479803E-01 -1.022300275887E-01 -1.896663276961E-01
C15  2.917567470142E-01  8.293716954601E-02  1.279219115414E-01
C16 -2.917567470142E-01 -8.293716954601E-02 -1.279219115414E-01
C17 -4.987346899737E-01  1.824051347961E-01  1.433928453770E-01
C18  4.987346899737E-01 -1.824051347961E-01 -1.433928453770E-01
C19 -4.528840702015E-01  2.967321605917E-01  2.192953150679E-01
C20  4.528840702015E-01 -2.967321605917E-01 -2.192953150679E-01
C21  2.452013598015E-01 -3.102024380826E-02  5.335955913467E-02
C22 -2.452013598015E-01  3.102024380826E-02 -5.335955913467E-02
C23  3.952457567833E-01 -4.998730524804E-02 -7.688594422160E-03
C24 -3.952457567833E-01  4.998730524804E-02  7.688594422160E-03
C25 -3.489970927628E-01  1.640071028092E-01  8.288272760802E-02
C26  3.489970927628E-01 -1.640071028092E-01 -8.288272760802E-02
C27 -4.460298931135E-01 -1.175379642210E-01  3.031219954286E-01
C28  4.460298931135E-01  1.175379642210E-01 -3.031219954286E-01
C29 -4.037247894310E-01 -7.530703279295E-02  3.864974565000E-01
C30  4.037247894310E-01  7.530703279295E-02 -3.864974565000E-01
C31 -2.166710537216E-01 -1.248025381817E-01  4.249041288926E-01
C32  2.166710537216E-01  1.248025381817E-01 -4.249041288926E-01
C33 -7.552606643693E-02 -2.123975825091E-01  3.783657442376E-01
C34  7.552606643693E-02  2.123975825091E-01 -3.783657442376E-01
C35 -1.122104945134E-01 -2.590466253295E-01  2.903467064894E-01
C36  1.122104945134E-01  2.590466253295E-01 -2.903467064894E-01
C37 -3.037372553887E-01 -2.114231582132E-01  2.518189922254E-01
C38  3.037372553887E-01  2.114231582132E-01 -2.518189922254E-01
C39 -3.427037782491E-01 -2.538825821119E-01  1.668412780503E-01
C40  3.427037782491E-01  2.538825821119E-01 -1.668412780503E-01
C41 -2.005400577824E-01 -3.446206023259E-01  1.163870803526E-01
C42  2.005400577824E-01  3.446206023259E-01 -1.163870803526E-01
C43 -8.435426298358E-03 -3.922832422139E-01  1.549982200468E-01
C44  8.435426298358E-03  3.922832422139E-01 -1.549982200468E-01
C45  2.882311044931E-02 -3.481501972865E-01  2.418653812056E-01
C46 -2.882311044931E-02  3.481501972865E-01 -2.418653812056E-01
C47 -2.384361256156E-01 -3.869367191156E-01  3.063282742354E-02
C48  2.384361256156E-01  3.869367191156E-01 -3.063282742354E-02
C49 -9.610057161491E-02 -4.760677860869E-01 -1.932023481838E-02
C50  9.610057161491E-02  4.760677860869E-01  1.932023481838E-02
C51  1.333687041846E-01 -4.813699300973E-01  1.056259148112E-01
C52 -1.333687041846E-01  4.813699300973E-01 -1.056259148112E-01
H53 -1.198560399424E-01  1.567302299137E-01  3.154535469105E-01
H54  1.198560399424E-01 -1.567302299137E-01 -3.154535469105E-01
H55 -2.701241970103E-02  3.541490222967E-01  4.480729460658E-01
H56  2.701241970103E-02 -3.541490222967E-01 -4.480729460658E-01
H57  3.334806332400E-01 -4.710165481132E-01  4.739952284360E-01
H58 -3.334806332400E-01  4.710165481132E-01 -4.739952284360E-01
H59 -3.975270849065E-01 -4.963202265794E-01  3.684022620303E-01
H60  3.975270849065E-01  4.963202265794E-01 -3.684022620303E-01
H61 -1.747190633890E-02  2.676742076482E-02  1.779626827530E-01
H62  1.747190633890E-02 -2.676742076482E-02 -1.779626827530E-01
H63 -2.945801406968E-01  3.732373440563E-01  2.308635352963E-01
H64  2.945801406968E-01 -3.732373440563E-01 -2.308635352963E-01
H65  8.646673195251E-02 -1.066179384980E-01  4.170788812847E-02
H66 -8.646673195251E-02  1.066179384980E-01 -4.170788812847E-02
H67 -1.900903281559E-01  2.391496254541E-01  9.469362078950E-02
H68  1.900903281559E-01 -2.391496254541E-01 -9.469362078950E-02
H69  4.104470975065E-01 -7.859277041860E-02  2.736294277658E-01
H70 -4.104470975065E-01  7.859277041860E-02 -2.736294277658E-01
H71  4.863592006063E-01 -1.181775418519E-03  4.245626067659E-01
H72 -4.863592006063E-01  1.181775418519E-03 -4.245626067659E-01
H73 -1.860202763181E-01 -9.112073262548E-02  4.924216794432E-01
H74  1.860202763181E-01  9.112073262548E-02 -4.924216794432E-01
H75  6.948610813804E-02 -2.493959000021E-01  4.076272626635E-01
H76 -6.948610813804E-02  2.493959000021E-01 -4.076272626635E-01
H77 -4.882283056909E-01 -2.173358412152E-01  1.375783703821E-01
H78  4.882283056909E-01  2.173358412152E-01 -1.375783703821E-01
H79  1.736759045998E-01 -3.853464820718E-01  2.713024095782E-01
H80 -1.736759045998E-01  3.853464820718E-01 -2.713024095782E-01
H81 -3.838209234167E-01 -3.503197116333E-01  1.396616607723E-03
H82  3.838209234167E-01  3.503197116333E-01 -1.396616607723E-03
H83  2.787098800851E-01  4.819858082743E-01  1.349114399809E-01
H84 -2.787098800851E-01 -4.819858082743E-01 -1.349114399809E-01


#===END

data_OPT_STEP_26

_symmetry_space_group_name_H-M 'P 1'
_cell_length_a      6.38337571
_cell_length_b      7.79471575
_cell_length_c     16.48631461
_cell_angle_alpha   98.351814
_cell_angle_beta   92.282830
_cell_angle_gamma   96.001847

loop_
_atom_site_label
_atom_site_fract_x
_atom_site_fract_y
_atom_site_fract_z
C1  3.874352529153E-02  2.319235463806E-01  3.270228852213E-01
C2 -3.874352529153E-02 -2.319235463806E-01 -3.270228852213E-01
C3  8.941590008943E-02  3.425570081616E-01  3.996517627142E-01
C4 -8.941590008943E-02 -3.425570081616E-01 -3.996517627142E-01
C5  2.948951449003E-01  4.422181299527E-01  4.146526397657E-01
C6 -2.948951449003E-01 -4.422181299527E-01 -4.146526397657E-01
C7  4.437453813991E-01  4.289401670653E-01  3.565214717783E-01
C8 -4.437453813991E-01 -4.289401670653E-01 -3.565214717783E-01
C9  3.979803044159E-01  3.141712750069E-01  2.791172577505E-01
C10 -3.979803044159E-01 -3.141712750069E-01 -2.791172577505E-01
C11  1.894255886747E-01  2.138877173248E-01  2.638227403283E-01
C12 -1.894255886747E-01 -2.138877173248E-01 -2.638227403283E-01
C13  1.413872967808E-01  1.021367995525E-01  1.895225543339E-01
C14 -1.413872967808E-01 -1.021367995525E-01 -1.895225543339E-01
C15  2.913970789321E-01  8.341340272891E-02  1.276924041114E-01
C16 -2.913970789321E-01 -8.341340272891E-02 -1.276924041114E-01
C17 -4.991726149388E-01  1.832587162033E-01  1.432334875890E-01
C18  4.991726149388E-01 -1.832587162033E-01 -1.432334875890E-01
C19 -4.531564531028E-01  2.974175751977E-01  2.192370989798E-01
C20  4.531564531028E-01 -2.974175751977E-01 -2.192370989798E-01
C21  2.443467054591E-01 -2.975719815945E-02  5.286281820670E-02
C22 -2.443467054591E-01  2.975719815945E-02 -5.286281820670E-02
C23  3.950797057264E-01 -4.978986109331E-02 -7.822880162045E-03
C24 -3.950797057264E-01  4.978986109331E-02  7.822880162045E-03
C25 -3.490878404041E-01  1.643392439359E-01  8.294819157800E-02
C26  3.490878404041E-01 -1.643392439359E-01 -8.294819157800E-02
C27 -4.456300246384E-01 -1.174200398022E-01  3.031935794248E-01
C28  4.456300246384E-01  1.174200398022E-01 -3.031935794248E-01
C29 -4.028898395654E-01 -7.521748765236E-02  3.866368530414E-01
C30  4.028898395654E-01  7.521748765236E-02 -3.866368530414E-01
C31 -2.148363490562E-01 -1.241593905644E-01  4.250678250982E-01
C32  2.148363490562E-01  1.241593905644E-01 -4.250678250982E-01
C33 -7.367268304180E-02 -2.117215073012E-01  3.784965075906E-01
C34  7.367268304180E-02  2.117215073012E-01 -3.784965075906E-01
C35 -1.102380424865E-01 -2.574606424041E-01  2.903664391588E-01
C36  1.102380424865E-01  2.574606424041E-01 -2.903664391588E-01
C37 -3.026817319809E-01 -2.103839749055E-01  2.518162420204E-01
C38  3.026817319809E-01  2.103839749055E-01 -2.518162420204E-01
C39 -3.425292213253E-01 -2.535135197253E-01  1.668200578581E-01
C40  3.425292213253E-01  2.535135197253E-01 -1.668200578581E-01
C41 -1.995988194030E-01 -3.432426394217E-01  1.163009923877E-01
C42  1.995988194030E-01  3.432426394217E-01 -1.163009923877E-01
C43 -6.517571821062E-03 -3.901972182014E-01  1.549335712223E-01
C44  6.517571821062E-03  3.901972182014E-01 -1.549335712223E-01
C45  3.162634404110E-02 -3.453598142796E-01  2.418081751295E-01
C46 -3.162634404110E-02  3.453598142796E-01 -2.418081751295E-01
C47 -2.384248909608E-01 -3.863950270355E-01  3.054035116502E-02
C48  2.384248909608E-01  3.863950270355E-01 -3.054035116502E-02
C49 -9.653667023019E-02 -4.763686195897E-01 -1.934095205032E-02
C50  9.653667023019E-02  4.763686195897E-01  1.934095205032E-02
C51  1.352472795866E-01 -4.793991780972E-01  1.055809758256E-01
C52 -1.352472795866E-01  4.793991780972E-01 -1.055809758256E-01
H53 -1.191837504344E-01  1.552642974195E-01  3.155803838327E-01
H54  1.191837504344E-01 -1.552642974195E-01 -3.155803838327E-01
H55 -2.739770678711E-02  3.551711860468E-01  4.477796910588E-01
H56  2.739770678711E-02 -3.551711860468E-01 -4.477796910588E-01
H57  3.333529061499E-01 -4.700402848065E-01  4.739117103137E-01
H58 -3.333529061499E-01  4.700402848065E-01 -4.739117103137E-01
H59 -3.984891774632E-01 -4.938822754808E-01  3.680184431374E-01
H60  3.984891774632E-01  4.938822754808E-01 -3.680184431374E-01
H61 -1.719470047614E-02  2.590584862840E-02  1.779386745378E-01
H62  1.719470047614E-02 -2.590584862840E-02 -1.779386745378E-01
H63 -2.946530249072E-01  3.736856631102E-01  2.309488134968E-01
H64  2.946530249072E-01 -3.736856631102E-01 -2.309488134968E-01
H65  8.526122198565E-02 -1.048138244091E-01  4.097700837673E-02
H66 -8.526122198565E-02  1.048138244091E-01 -4.097700837673E-02
H67 -1.905129258437E-01  2.402485797319E-01  9.468544257296E-02
H68  1.905129258437E-01 -2.402485797319E-01 -9.468544257296E-02
H69  4.094512170913E-01 -8.015384117727E-02  2.737956033178E-01
H70 -4.094512170913E-01  8.015384117727E-02 -2.737956033178E-01
H71  4.874535827278E-01 -5.432585934911E-04  4.246586852978E-01
H72 -4.874535827278E-01  5.432585934912E-04 -4.246586852978E-01
H73 -1.839328161058E-01 -9.061097671985E-02  4.926500423173E-01
H74  1.839328161058E-01  9.061097671985E-02 -4.926500423173E-01
H75  7.156822269473E-02 -2.491122146134E-01  4.077202022743E-01
H76 -7.156822269473E-02  2.491122146134E-01 -4.077202022743E-01
H77 -4.886248842903E-01 -2.174702083129E-01  1.375486108191E-01
H78  4.886248842903E-01  2.174702083129E-01 -1.375486108191E-01
H79  1.773167568304E-01 -3.816880827773E-01  2.712331871029E-01
H80 -1.773167568304E-01  3.816880827773E-01 -2.712331871029E-01
H81 -3.841750071232E-01 -3.499577569545E-01  1.263555005532E-03
H82  3.841750071232E-01  3.499577569545E-01 -1.263555005532E-03
H83  2.810131774023E-01  4.842302541727E-01  1.349071806771E-01
H84 -2.810131774023E-01 -4.842302541727E-01 -1.349071806771E-01


#===END

data_OPT_STEP_27

_symmetry_space_group_name_H-M 'P 1'
_cell_length_a      6.38660139
_cell_length_b      7.79270229
_cell_length_c     16.48406139
_cell_angle_alpha   98.343814
_cell_angle_beta   92.276656
_cell_angle_gamma   96.013551

loop_
_atom_site_label
_atom_site_fract_x
_atom_site_fract_y
_atom_site_fract_z
C1  3.879352956142E-02  2.327027386053E-01  3.269103877242E-01
C2 -3.879352956142E-02 -2.327027386053E-01 -3.269103877242E-01
C3  8.969962511847E-02  3.429200969515E-01  3.996322698353E-01
C4 -8.969962511847E-02 -3.429200969515E-01 -3.996322698353E-01
C5  2.950922543676E-01  4.425899847850E-01  4.146362172790E-01
C6 -2.950922543676E-01 -4.425899847850E-01 -4.146362172790E-01
C7  4.441218093585E-01  4.288495988037E-01  3.566028378649E-01
C8 -4.441218093585E-01 -4.288495988037E-01 -3.566028378649E-01
C9  3.983994068119E-01  3.140025771397E-01  2.792082337740E-01
C10 -3.983994068119E-01 -3.140025771397E-01 -2.792082337740E-01
C11  1.897161248121E-01  2.140597393718E-01  2.638410039634E-01
C12 -1.897161248121E-01 -2.140597393718E-01 -2.638410039634E-01
C13  1.416485766753E-01  1.022577787737E-01  1.895450155764E-01
C14 -1.416485766753E-01 -1.022577787737E-01 -1.895450155764E-01
C15  2.916974448272E-01  8.329620974475E-02  1.277553902282E-01
C16 -2.916974448272E-01 -8.329620974475E-02 -1.277553902282E-01
C17 -4.989370582692E-01  1.831568692528E-01  1.432819696510E-01
C18  4.989370582692E-01 -1.831568692528E-01 -1.432819696510E-01
C19 -4.527542015844E-01  2.971386808786E-01  2.193383900958E-01
C20  4.527542015844E-01 -2.971386808786E-01 -2.193383900958E-01
C21  2.445532330676E-01 -2.983956771775E-02  5.291028212910E-02
C22 -2.445532330676E-01  2.983956771775E-02 -5.291028212910E-02
C23  3.951141182509E-01 -4.979832554161E-02 -7.816919388545E-03
C24 -3.951141182509E-01  4.979832554161E-02  7.816919388545E-03
C25 -3.490290456451E-01  1.643221057901E-01  8.295550581935E-02
C26  3.490290456451E-01 -1.643221057901E-01 -8.295550581935E-02
C27 -4.455921160693E-01 -1.173958915234E-01  3.031857732642E-01
C28  4.455921160693E-01  1.173958915234E-01 -3.031857732642E-01
C29 -4.030890570873E-01 -7.549309054835E-02  3.866652404738E-01
C30  4.030890570873E-01  7.549309054835E-02 -3.866652404738E-01
C31 -2.150562836788E-01 -1.242587746234E-01  4.250911841430E-01
C32  2.150562836788E-01  1.242587746234E-01 -4.250911841430E-01
C33 -7.370676921952E-02 -2.114130431536E-01  3.784830505783E-01
C34  7.370676921952E-02  2.114130431536E-01 -3.784830505783E-01
C35 -1.104606387187E-01 -2.574600325778E-01  2.903644644784E-01
C36  1.104606387187E-01  2.574600325778E-01 -2.903644644784E-01
C37 -3.026430160108E-01 -2.102621866062E-01  2.517995310679E-01
C38  3.026430160108E-01  2.102621866062E-01 -2.517995310679E-01
C39 -3.423857545493E-01 -2.533259637225E-01  1.667864496326E-01
C40  3.423857545493E-01  2.533259637225E-01 -1.667864496326E-01
C41 -1.994546558899E-01 -3.430206555092E-01  1.162712761498E-01
C42  1.994546558899E-01  3.430206555092E-01 -1.162712761498E-01
C43 -6.854562021989E-03 -3.904119825330E-01  1.549464163117E-01
C44  6.854562021989E-03  3.904119825330E-01 -1.549464163117E-01
C45  3.098273117556E-02 -3.458556622630E-01  2.418461046777E-01
C46 -3.098273117556E-02  3.458556622630E-01 -2.418461046777E-01
C47 -2.383811653839E-01 -3.864716831443E-01  3.051759204100E-02
C48  2.383811653839E-01  3.864716831443E-01 -3.051759204100E-02
C49 -9.633901776774E-02 -4.762116208218E-01 -1.936045194647E-02
C50  9.633901776774E-02  4.762116208218E-01  1.936045194647E-02
C51  1.349167065116E-01 -4.795457350931E-01  1.056065760403E-01
C52 -1.349167065116E-01  4.795457350931E-01 -1.056065760403E-01
H53 -1.190172929203E-01  1.559267245526E-01  3.154948507749E-01
H54  1.190172929203E-01 -1.559267245526E-01 -3.154948507749E-01
H55 -2.709574726904E-02  3.555157006594E-01  4.477712798423E-01
H56  2.709574726904E-02 -3.555157006594E-01 -4.477712798423E-01
H57  3.334822167464E-01 -4.695410802612E-01  4.738922083290E-01
H58 -3.334822167464E-01  4.695410802612E-01 -4.738922083290E-01
H59 -3.982541955687E-01 -4.937323721722E-01  3.680421777044E-01
H60  3.982541955687E-01  4.937323721722E-01 -3.680421777044E-01
H61 -1.680048139396E-02  2.596065463014E-02  1.779923708342E-01
H62  1.680048139396E-02 -2.596065463014E-02 -1.779923708342E-01
H63 -2.942845301825E-01  3.733474776518E-01  2.310515958355E-01
H64  2.942845301825E-01 -3.733474776518E-01 -2.310515958355E-01
H65  8.586292275303E-02 -1.055464751880E-01  4.119635523475E-02
H66 -8.586292275303E-02  1.055464751880E-01 -4.119635523475E-02
H67 -1.906236746351E-01  2.404800383352E-01  9.462631725860E-02
H68  1.906236746351E-01 -2.404800383352E-01 -9.462631725860E-02
H69  4.094794586927E-01 -8.029172966582E-02  2.737998362851E-01
H70 -4.094794586927E-01  8.029172966582E-02 -2.737998362851E-01
H71  4.873439915815E-01 -8.135585447161E-04  4.247099536728E-01
H72 -4.873439915815E-01  8.135585447162E-04 -4.247099536728E-01
H73 -1.839685259795E-01 -9.037297687320E-02  4.926670741966E-01
H74  1.839685259795E-01  9.037297687320E-02 -4.926670741966E-01
H75  7.164124156076E-02 -2.486273664057E-01  4.076573604751E-01
H76 -7.164124156076E-02  2.486273664057E-01 -4.076573604751E-01
H77 -4.883340578507E-01 -2.172448436740E-01  1.375027323156E-01
H78  4.883340578507E-01  2.172448436740E-01 -1.375027323156E-01
H79  1.764556116682E-01 -3.823276394559E-01  2.712924792149E-01
H80 -1.764556116682E-01  3.823276394559E-01 -2.712924792149E-01
H81 -3.840716446084E-01 -3.501005578201E-01  1.224635843239E-03
H82  3.840716446084E-01  3.501005578201E-01 -1.224635843239E-03
H83  2.805137766762E-01  4.840135605970E-01  1.349603810632E-01
H84 -2.805137766762E-01 -4.840135605970E-01 -1.349603810632E-01


#===END

data_OPT_STEP_28

_symmetry_space_group_name_H-M 'P 1'
_cell_length_a      6.39030661
_cell_length_b      7.78997287
_cell_length_c     16.48185136
_cell_angle_alpha   98.341330
_cell_angle_beta   92.267961
_cell_angle_gamma   96.021616

loop_
_atom_site_label
_atom_site_fract_x
_atom_site_fract_y
_atom_site_fract_z
C1  3.923321032103E-02  2.328889869382E-01  3.269580825471E-01
C2 -3.923321032103E-02 -2.328889869382E-01 -3.269580825471E-01
C3  9.000464067473E-02  3.433161838338E-01  3.996235598122E-01
C4 -9.000464067473E-02 -3.433161838338E-01 -3.996235598122E-01
C5  2.953281296016E-01  4.429549901617E-01  4.146483165409E-01
C6 -2.953281296016E-01 -4.429549901617E-01 -4.146483165409E-01
C7  4.444573973205E-01  4.289347331566E-01  3.566693234437E-01
C8 -4.444573973205E-01 -4.289347331566E-01 -3.566693234437E-01
C9  3.986806223513E-01  3.141974337044E-01  2.792446374376E-01
C10 -3.986806223513E-01 -3.141974337044E-01 -2.792446374376E-01
C11  1.901277994473E-01  2.141593959107E-01  2.639041967702E-01
C12 -1.901277994473E-01 -2.141593959107E-01 -2.639041967702E-01
C13  1.418640601256E-01  1.026108312144E-01  1.895383162934E-01
C14 -1.418640601256E-01 -1.026108312144E-01 -1.895383162934E-01
C15  2.919711827088E-01  8.332152874619E-02  1.278125372771E-01
C16 -2.919711827088E-01 -8.332152874619E-02 -1.278125372771E-01
C17 -4.987242459282E-01  1.831642424488E-01  1.433256902079E-01
C18  4.987242459282E-01 -1.831642424488E-01 -1.433256902079E-01
C19 -4.525850816783E-01  2.973655777533E-01  2.193485612094E-01
C20  4.525850816783E-01 -2.973655777533E-01 -2.193485612094E-01
C21  2.448169843785E-01 -2.993925699880E-02  5.298782172984E-02
C22 -2.448169843785E-01  2.993925699880E-02 -5.298782172984E-02
C23  3.952262249270E-01 -4.994581316112E-02 -7.769609632287E-03
C24 -3.952262249270E-01  4.994581316112E-02  7.769609632287E-03
C25 -3.489195394488E-01  1.642646440333E-01  8.297689023001E-02
C26  3.489195394488E-01 -1.642646440333E-01 -8.297689023001E-02
C27 -4.453152844785E-01 -1.170437621153E-01  3.031741126261E-01
C28  4.453152844785E-01  1.170437621153E-01 -3.031741126261E-01
C29 -4.030526300760E-01 -7.537561881212E-02  3.866764564834E-01
C30  4.030526300760E-01  7.537561881212E-02 -3.866764564834E-01
C31 -2.154613071726E-01 -1.244655318782E-01  4.251257519153E-01
C32  2.154613071726E-01  1.244655318782E-01 -4.251257519153E-01
C33 -7.404693469985E-02 -2.114347164602E-01  3.785000525747E-01
C34  7.404693469985E-02  2.114347164602E-01 -3.785000525747E-01
C35 -1.108260139553E-01 -2.576217455736E-01  2.903764403926E-01
C36  1.108260139553E-01  2.576217455736E-01 -2.903764403926E-01
C37 -3.025554114879E-01 -2.101019571539E-01  2.517964462780E-01
C38  3.025554114879E-01  2.101019571539E-01 -2.517964462780E-01
C39 -3.422329649685E-01 -2.531998438515E-01  1.667837621904E-01
C40  3.422329649685E-01  2.531998438515E-01 -1.667837621904E-01
C41 -1.996267845942E-01 -3.433188136557E-01  1.162956028535E-01
C42  1.996267845942E-01  3.433188136557E-01 -1.162956028535E-01
C43 -7.298062532446E-03 -3.908251510446E-01  1.549735449251E-01
C44  7.298062532446E-03  3.908251510446E-01 -1.549735449251E-01
C45  3.052790029519E-02 -3.460851806494E-01  2.418651001291E-01
C46 -3.052790029519E-02  3.460851806494E-01 -2.418651001291E-01
C47 -2.383905210464E-01 -3.866581715301E-01  3.052859444316E-02
C48  2.383905210464E-01  3.866581715301E-01 -3.052859444316E-02
C49 -9.626641115082E-02 -4.762196835231E-01 -1.935690594165E-02
C50  9.626641115082E-02  4.762196835231E-01  1.935690594165E-02
C51  1.345120208401E-01 -4.798799355368E-01  1.056353181516E-01
C52 -1.345120208401E-01  4.798799355368E-01 -1.056353181516E-01
H53 -1.184316193068E-01  1.558752601570E-01  3.155921124158E-01
H54  1.184316193068E-01 -1.558752601570E-01 -3.155921124158E-01
H55 -2.680395210609E-02  3.559527619894E-01  4.477543623124E-01
H56  2.680395210609E-02 -3.559527619894E-01 -4.477543623124E-01
H57  3.335231996816E-01 -4.689139216231E-01  4.738859776321E-01
H58 -3.335231996816E-01  4.689139216231E-01 -4.738859776321E-01
H59 -3.978222268768E-01 -4.938618523999E-01  3.681621201303E-01
H60  3.978222268768E-01  4.938618523999E-01 -3.681621201303E-01
H61 -1.662362850720E-02  2.649456985938E-02  1.779441351609E-01
H62  1.662362850720E-02 -2.649456985938E-02 -1.779441351609E-01
H63 -2.941498838738E-01  3.735594454930E-01  2.310594732129E-01
H64  2.941498838738E-01 -3.735594454930E-01 -2.310594732129E-01
H65  8.629933248185E-02 -1.058890647482E-01  4.134121621796E-02
H66 -8.629933248185E-02  1.058890647482E-01 -4.134121621796E-02
H67 -1.904422408772E-01  2.402523640744E-01  9.468397178752E-02
H68  1.904422408772E-01 -2.402523640744E-01 -9.468397178752E-02
H69  4.099909709700E-01 -7.971301153019E-02  2.737664680303E-01
H70 -4.099909709700E-01  7.971301153019E-02 -2.737664680303E-01
H71  4.871215854558E-01 -1.169888966467E-03  4.247776755506E-01
H72 -4.871215854558E-01  1.169888966467E-03 -4.247776755506E-01
H73 -1.844149070788E-01 -9.050354362076E-02  4.927234850965E-01
H74  1.844149070788E-01  9.050354362076E-02 -4.927234850965E-01
H75  7.174163614614E-02 -2.480177629939E-01  4.076030340401E-01
H76 -7.174163614614E-02  2.480177629939E-01 -4.076030340401E-01
H77 -4.880766591318E-01 -2.171097107869E-01  1.374876607347E-01
H78  4.880766591318E-01  2.171097107869E-01 -1.374876607347E-01
H79  1.758105946349E-01 -3.827014960518E-01  2.713360859074E-01
H80 -1.758105946349E-01  3.827014960518E-01 -2.713360859074E-01
H81 -3.839389693113E-01 -3.502065301419E-01  1.213904322155E-03
H82  3.839389693113E-01  3.502065301419E-01 -1.213904322155E-03
H83  2.799249368007E-01  4.835415976131E-01  1.350183620655E-01
H84 -2.799249368007E-01 -4.835415976131E-01 -1.350183620655E-01


#===END

data_OPT_STEP_29

_symmetry_space_group_name_H-M 'P 1'
_cell_length_a      6.39918304
_cell_length_b      7.78154483
_cell_length_c     16.47693902
_cell_angle_alpha   98.325314
_cell_angle_beta   92.263378
_cell_angle_gamma   96.060788

loop_
_atom_site_label
_atom_site_fract_x
_atom_site_fract_y
_atom_site_fract_z
C1  4.013319773463E-02  2.336146230187E-01  3.270015544220E-01
C2 -4.013319773463E-02 -2.336146230187E-01 -3.270015544220E-01
C3  9.089562046428E-02  3.442970849562E-01  3.996238857140E-01
C4 -9.089562046428E-02 -3.442970849562E-01 -3.996238857140E-01
C5  2.960252699775E-01  4.440147837323E-01  4.146358649597E-01
C6 -2.960252699775E-01 -4.440147837323E-01 -4.146358649597E-01
C7  4.451320209439E-01  4.295791846916E-01  3.567231523734E-01
C8 -4.451320209439E-01 -4.295791846916E-01 -3.567231523734E-01
C9  3.994225976568E-01  3.144642313328E-01  2.793583437935E-01
C10 -3.994225976568E-01 -3.144642313328E-01 -2.793583437935E-01
C11  1.909099738933E-01  2.145976789682E-01  2.639810159746E-01
C12 -1.909099738933E-01 -2.145976789682E-01 -2.639810159746E-01
C13  1.426676152914E-01  1.026751776015E-01  1.896696402530E-01
C14 -1.426676152914E-01 -1.026751776015E-01 -1.896696402530E-01
C15  2.925505178942E-01  8.327708499889E-02  1.279334705202E-01
C16 -2.925505178942E-01 -8.327708499889E-02 -1.279334705202E-01
C17 -4.982622920023E-01  1.831006104283E-01  1.434367070222E-01
C18  4.982622920023E-01 -1.831006104283E-01 -1.434367070222E-01
C19 -4.519422078113E-01  2.972939851935E-01  2.195009719600E-01
C20  4.519422078113E-01 -2.972939851935E-01 -2.195009719600E-01
C21  2.453923675981E-01 -3.029667037641E-02  5.315020606689E-02
C22 -2.453923675981E-01  3.029667037641E-02 -5.315020606689E-02
C23  3.952360705309E-01 -4.986166654015E-02 -7.782448292108E-03
C24 -3.952360705309E-01  4.986166654015E-02  7.782448292108E-03
C25 -3.486265758490E-01  1.639746817546E-01  8.308420304281E-02
C26  3.486265758490E-01 -1.639746817546E-01 -8.308420304281E-02
C27 -4.452532015230E-01 -1.174453959863E-01  3.032092674902E-01
C28  4.452532015230E-01  1.174453959863E-01 -3.032092674902E-01
C29 -4.031031356284E-01 -7.584633413091E-02  3.867327751915E-01
C30  4.031031356284E-01  7.584633413091E-02 -3.867327751915E-01
C31 -2.155374526426E-01 -1.245470508896E-01  4.251879412298E-01
C32  2.155374526426E-01  1.245470508896E-01 -4.251879412298E-01
C33 -7.420687566604E-02 -2.113787694992E-01  3.785517413817E-01
C34  7.420687566604E-02  2.113787694992E-01 -3.785517413817E-01
C35 -1.109644696912E-01 -2.576081582494E-01  2.904036665836E-01
C36  1.109644696912E-01  2.576081582494E-01 -2.904036665836E-01
C37 -3.024109480771E-01 -2.101302570336E-01  2.518019626590E-01
C38  3.024109480771E-01  2.101302570336E-01 -2.518019626590E-01
C39 -3.419248998888E-01 -2.531761936855E-01  1.667656830536E-01
C40  3.419248998888E-01  2.531761936855E-01 -1.667656830536E-01
C41 -1.994661906922E-01 -3.433014127521E-01  1.162892225818E-01
C42  1.994661906922E-01  3.433014127521E-01 -1.162892225818E-01
C43 -7.381282572538E-03 -3.907475409843E-01  1.549904345131E-01
C44  7.381282572538E-03  3.907475409843E-01 -1.549904345131E-01
C45  3.024768987672E-02 -3.460957325926E-01  2.419066530339E-01
C46 -3.024768987672E-02  3.460957325926E-01 -2.419066530339E-01
C47 -2.383291821795E-01 -3.869797706683E-01  3.052131325924E-02
C48  2.383291821795E-01  3.869797706683E-01 -3.052131325924E-02
C49 -9.609747202719E-02 -4.761618709974E-01 -1.937369630205E-02
C50  9.609747202719E-02  4.761618709974E-01  1.937369630205E-02
C51  1.343847801812E-01 -4.797043381953E-01  1.056638010012E-01
C52 -1.343847801812E-01  4.797043381953E-01 -1.056638010012E-01
H53 -1.177596861049E-01  1.571779320631E-01  3.155067623465E-01
H54  1.177596861049E-01 -1.571779320631E-01 -3.155067623465E-01
H55 -2.586960889954E-02  3.571752789055E-01  4.477245194571E-01
H56  2.586960889954E-02 -3.571752789055E-01 -4.477245194571E-01
H57  3.339978805849E-01 -4.674115971303E-01  4.738279766619E-01
H58 -3.339978805849E-01  4.674115971303E-01 -4.738279766619E-01
H59 -3.970717322564E-01 -4.934818159011E-01  3.682813085261E-01
H60  3.970717322564E-01  4.934818159011E-01 -3.682813085261E-01
H61 -1.579882109089E-02  2.671721472055E-02  1.780378664313E-01
H62  1.579882109089E-02 -2.671721472055E-02 -1.780378664313E-01
H63 -2.936140137034E-01  3.735177041909E-01  2.311988300100E-01
H64  2.936140137034E-01 -3.735177041909E-01 -2.311988300100E-01
H65  8.701173668134E-02 -1.063285266807E-01  4.153050144100E-02
H66 -8.701173668134E-02  1.063285266807E-01 -4.153050144100E-02
H67 -1.901543151665E-01  2.398399500909E-01  9.481922367129E-02
H68  1.901543151665E-01 -2.398399500909E-01 -9.481922367129E-02
H69  4.104295745424E-01 -7.984682289021E-02  2.737737312037E-01
H70 -4.104295745424E-01  7.984682289021E-02 -2.737737312037E-01
H71  4.870235539461E-01 -1.909012365182E-03  4.248727459360E-01
H72 -4.870235539461E-01  1.909012365182E-03 -4.248727459360E-01
H73 -1.847558517999E-01 -9.082856803854E-02  4.928426364141E-01
H74  1.847558517999E-01  9.082856803854E-02 -4.928426364141E-01
H75  7.198923778326E-02 -2.472909127032E-01  4.075530806168E-01
H76 -7.198923778326E-02  2.472909127032E-01 -4.075530806168E-01
H77 -4.873896070817E-01 -2.168820469033E-01  1.374236103233E-01
H78  4.873896070817E-01  2.168820469033E-01 -1.374236103233E-01
H79  1.750391245770E-01 -3.831200570494E-01  2.714364153327E-01
H80 -1.750391245770E-01  3.831200570494E-01 -2.714364153327E-01
H81 -3.840509620884E-01 -3.511193888668E-01  1.205602699346E-03
H82  3.840509620884E-01  3.511193888668E-01 -1.205602699346E-03
H83  2.797304590668E-01  4.839412550125E-01  1.350746742376E-01
H84 -2.797304590668E-01 -4.839412550125E-01 -1.350746742376E-01


#===END

data_OPT_STEP_30

_symmetry_space_group_name_H-M 'P 1'
_cell_length_a      6.40880379
_cell_length_b      7.77158162
_cell_length_c     16.47089794
_cell_angle_alpha   98.302887
_cell_angle_beta   92.273445
_cell_angle_gamma   96.070319

loop_
_atom_site_label
_atom_site_fract_x
_atom_site_fract_y
_atom_site_fract_z
C1  4.103765409180E-02  2.341673560071E-01  3.270764447195E-01
C2 -4.103765409180E-02 -2.341673560071E-01 -3.270764447195E-01
C3  9.180639371607E-02  3.450813151827E-01  3.996800534117E-01
C4 -9.180639371607E-02 -3.450813151827E-01 -3.996800534117E-01
C5  2.966891637585E-01  4.448374358039E-01  4.146868723891E-01
C6 -2.966891637585E-01 -4.448374358039E-01 -4.146868723891E-01
C7  4.456687847997E-01  4.300347701018E-01  3.568262352299E-01
C8 -4.456687847997E-01 -4.300347701018E-01 -3.568262352299E-01
C9  3.999373479150E-01  3.147521109218E-01  2.794618346995E-01
C10 -3.999373479150E-01 -3.147521109218E-01 -2.794618346995E-01
C11  1.915816578796E-01  2.150037725874E-01  2.640489235106E-01
C12 -1.915816578796E-01 -2.150037725874E-01 -2.640489235106E-01
C13  1.432276798963E-01  1.031038275797E-01  1.896904862324E-01
C14 -1.432276798963E-01 -1.031038275797E-01 -1.896904862324E-01
C15  2.930401420998E-01  8.329080781068E-02  1.280183404954E-01
C16 -2.930401420998E-01 -8.329080781068E-02 -1.280183404954E-01
C17 -4.979496741910E-01  1.830296941227E-01  1.435453025818E-01
C18  4.979496741910E-01 -1.830296941227E-01 -1.435453025818E-01
C19 -4.516473393879E-01  2.974011789949E-01  2.196049907471E-01
C20  4.516473393879E-01 -2.974011789949E-01 -2.196049907471E-01
C21  2.458271943041E-01 -3.034075546250E-02  5.320407524742E-02
C22 -2.458271943041E-01  3.034075546250E-02 -5.320407524742E-02
C23  3.953746828833E-01 -4.991215855960E-02 -7.770879808945E-03
C24 -3.953746828833E-01  4.991215855960E-02  7.770879808945E-03
C25 -3.487690865141E-01  1.641797101396E-01  8.308035029563E-02
C26  3.487690865141E-01 -1.641797101396E-01 -8.308035029563E-02
C27 -4.446341874872E-01 -1.172197301846E-01  3.032642866634E-01
C28  4.446341874872E-01  1.172197301846E-01 -3.032642866634E-01
C29 -4.025937713321E-01 -7.584160252466E-02  3.868248019999E-01
C30  4.025937713321E-01  7.584160252466E-02 -3.868248019999E-01
C31 -2.150548730997E-01 -1.243481020024E-01  4.252890122846E-01
C32  2.150548730997E-01  1.243481020024E-01 -4.252890122846E-01
C33 -7.356496737062E-02 -2.106418555827E-01  3.785945222820E-01
C34  7.356496737062E-02  2.106418555827E-01 -3.785945222820E-01
C35 -1.106661629486E-01 -2.572920902823E-01  2.904504443215E-01
C36  1.106661629486E-01  2.572920902823E-01 -2.904504443215E-01
C37 -3.021348506442E-01 -2.101197036625E-01  2.518456692086E-01
C38  3.021348506442E-01  2.101197036625E-01 -2.518456692086E-01
C39 -3.416901356965E-01 -2.533050305563E-01  1.667855582123E-01
C40  3.416901356965E-01  2.533050305563E-01 -1.667855582123E-01
C41 -1.993719295944E-01 -3.434093611548E-01  1.163066389866E-01
C42  1.993719295944E-01  3.434093611548E-01 -1.163066389866E-01
C43 -7.530101305144E-03 -3.909182550942E-01  1.550411532813E-01
C44  7.530101305144E-03  3.909182550942E-01 -1.550411532813E-01
C45  3.017582288878E-02 -3.460958031452E-01  2.419712814457E-01
C46 -3.017582288878E-02  3.460958031452E-01 -2.419712814457E-01
C47 -2.380591213638E-01 -3.869567332075E-01  3.049862527020E-02
C48  2.380591213638E-01  3.869567332075E-01 -3.049862527020E-02
C49 -9.608887018020E-02 -4.762971836149E-01 -1.938118680556E-02
C50  9.608887018020E-02  4.762971836149E-01  1.938118680556E-02
C51  1.340329049344E-01 -4.799566145899E-01  1.057267318781E-01
C52 -1.340329049344E-01  4.799566145899E-01 -1.057267318781E-01
H53 -1.166018455866E-01  1.575625203021E-01  3.156288976111E-01
H54  1.166018455866E-01 -1.575625203021E-01 -3.156288976111E-01
H55 -2.491275515816E-02  3.583483402310E-01  4.477199855291E-01
H56  2.491275515816E-02 -3.583483402310E-01 -4.477199855291E-01
H57  3.343844663035E-01 -4.660510053554E-01  4.737931322423E-01
H58 -3.343844663035E-01  4.660510053554E-01 -4.737931322423E-01
H59 -3.967137416525E-01 -4.929879556384E-01  3.683799455980E-01
H60  3.967137416525E-01  4.929879556384E-01 -3.683799455980E-01
H61 -1.519837998276E-02  2.744360060124E-02  1.779886111517E-01
H62  1.519837998276E-02 -2.744360060124E-02 -1.779886111517E-01
H63 -2.935763177185E-01  3.737514833843E-01  2.312682668663E-01
H64  2.935763177185E-01 -3.737514833843E-01 -2.312682668663E-01
H65  8.760577064152E-02 -1.063438189624E-01  4.157634032693E-02
H66 -8.760577064152E-02  1.063438189624E-01 -4.157634032693E-02
H67 -1.904597325672E-01  2.400327336707E-01  9.482212792487E-02
H68  1.904597325672E-01 -2.400327336707E-01 -9.482212792487E-02
H69  4.111034510334E-01 -7.980701725234E-02  2.738534263898E-01
H70 -4.111034510334E-01  7.980701725234E-02 -2.738534263898E-01
H71  4.876452109555E-01 -1.990179861531E-03  4.249979715023E-01
H72 -4.876452109555E-01  1.990179861531E-03 -4.249979715023E-01
H73 -1.842746187055E-01 -9.060336075706E-02  4.929675157258E-01
H74  1.842746187055E-01  9.060336075706E-02 -4.929675157258E-01
H75  7.272392287941E-02 -2.463218745686E-01  4.074976631034E-01
H76 -7.272392287941E-02  2.463218745686E-01 -4.074976631034E-01
H77 -4.869217914029E-01 -2.170211785054E-01  1.374232074852E-01
H78  4.869217914029E-01  2.170211785054E-01 -1.374232074852E-01
H79  1.751554097117E-01 -3.825230401301E-01  2.714785650244E-01
H80 -1.751554097117E-01  3.825230401301E-01 -2.714785650244E-01
H81 -3.833463623626E-01 -3.507967693829E-01  1.129538863211E-03
H82  3.833463623626E-01  3.507967693829E-01 -1.129538863211E-03
H83  2.791287761488E-01  4.836695316300E-01  1.351727729540E-01
H84 -2.791287761488E-01 -4.836695316300E-01 -1.351727729540E-01


#===END

data_OPT_STEP_31

_symmetry_space_group_name_H-M 'P 1'
_cell_length_a      6.42997279
_cell_length_b      7.75249643
_cell_length_c     16.45897517
_cell_angle_alpha   98.268419
_cell_angle_beta   92.300799
_cell_angle_gamma   96.105245

loop_
_atom_site_label
_atom_site_fract_x
_atom_site_fract_y
_atom_site_fract_z
C1  4.254540661466E-02  2.354547614012E-01  3.270592063314E-01
C2 -4.254540661466E-02 -2.354547614012E-01 -3.270592063314E-01
C3  9.318594292497E-02  3.469558253052E-01  3.996252489386E-01
C4 -9.318594292497E-02 -3.469558253052E-01 -3.996252489386E-01
C5  2.976756278125E-01  4.465724766396E-01  4.147184560987E-01
C6 -2.976756278125E-01 -4.465724766396E-01 -4.147184560987E-01
C7  4.462991080197E-01  4.312744933133E-01  3.569312517564E-01
C8 -4.462991080197E-01 -4.312744933133E-01 -3.569312517564E-01
C9  4.006525323262E-01  3.155017602187E-01  2.795829892781E-01
C10 -4.006525323262E-01 -3.155017602187E-01 -2.795829892781E-01
C11  1.929159944271E-01  2.154898413106E-01  2.641698949664E-01
C12 -1.929159944271E-01 -2.154898413106E-01 -2.641698949664E-01
C13  1.445913641454E-01  1.032961367193E-01  1.897835013478E-01
C14 -1.445913641454E-01 -1.032961367193E-01 -1.897835013478E-01
C15  2.937076659569E-01  8.371633128342E-02  1.280088748106E-01
C16 -2.937076659569E-01 -8.371633128342E-02 -1.280088748106E-01
C17 -4.977461286857E-01  1.834331360573E-01  1.436114191713E-01
C18  4.977461286857E-01 -1.834331360573E-01 -1.436114191713E-01
C19 -4.513981017565E-01  2.979288194540E-01  2.197332355073E-01
C20  4.513981017565E-01 -2.979288194540E-01 -2.197332355073E-01
C21  2.463838620803E-01 -2.992540077853E-02  5.309224224862E-02
C22 -2.463838620803E-01  2.992540077853E-02 -5.309224224862E-02
C23  3.956599656359E-01 -4.999324854689E-02 -7.787257876066E-03
C24 -3.956599656359E-01  4.999324854689E-02  7.787257876066E-03
C25 -3.489177988604E-01  1.641778509370E-01  8.321426491659E-02
C26  3.489177988604E-01 -1.641778509370E-01 -8.321426491659E-02
C27 -4.431829623962E-01 -1.166245605425E-01  3.033382698082E-01
C28  4.431829623962E-01  1.166245605425E-01 -3.033382698082E-01
C29 -4.009784533668E-01 -7.488879396548E-02  3.869423805356E-01
C30  4.009784533668E-01  7.488879396548E-02 -3.869423805356E-01
C31 -2.139269704219E-01 -1.234050311401E-01  4.254740953868E-01
C32  2.139269704219E-01  1.234050311401E-01 -4.254740953868E-01
C33 -7.305321555420E-02 -2.099526652418E-01  3.787731736420E-01
C34  7.305321555420E-02  2.099526652418E-01 -3.787731736420E-01
C35 -1.099993903521E-01 -2.564517336626E-01  2.905567131420E-01
C36  1.099993903521E-01  2.564517336626E-01 -2.905567131420E-01
C37 -3.010344181966E-01 -2.094324760921E-01  2.518881593097E-01
C38  3.010344181966E-01  2.094324760921E-01 -2.518881593097E-01
C39 -3.405137839707E-01 -2.527466411120E-01  1.667587138152E-01
C40  3.405137839707E-01  2.527466411120E-01 -1.667587138152E-01
C41 -1.989079374992E-01 -3.433527586416E-01  1.163161769465E-01
C42  1.989079374992E-01  3.433527586416E-01 -1.163161769465E-01
C43 -7.281612746303E-03 -3.903499948251E-01  1.551023708723E-01
C44  7.281612746303E-03  3.903499948251E-01 -1.551023708723E-01
C45  3.053796633678E-02 -3.451397175338E-01  2.420746909743E-01
C46 -3.053796633678E-02  3.451397175338E-01 -2.420746909743E-01
C47 -2.375549197330E-01 -3.871603271295E-01  3.045104857578E-02
C48  2.375549197330E-01  3.871603271295E-01 -3.045104857578E-02
C49 -9.585944993081E-02 -4.763939016833E-01 -1.942115810082E-02
C50  9.585944993081E-02  4.763939016833E-01  1.942115810082E-02
C51  1.337097371998E-01 -4.796781848780E-01  1.058218896536E-01
C52 -1.337097371998E-01  4.796781848780E-01 -1.058218896536E-01
H53 -1.145735166160E-01  1.585530436982E-01  3.156563012738E-01
H54  1.145735166160E-01 -1.585530436982E-01 -3.156563012738E-01
H55 -2.324263276464E-02  3.605636335456E-01  4.476201409117E-01
H56  2.324263276464E-02 -3.605636335456E-01 -4.476201409117E-01
H57  3.352770467391E-01 -4.640090464433E-01  4.738141491209E-01
H58 -3.352770467391E-01  4.640090464433E-01 -4.738141491209E-01
H59 -3.964941707055E-01 -4.916194452947E-01  3.684879176026E-01
H60  3.964941707055E-01  4.916194452947E-01 -3.684879176026E-01
H61 -1.323605297106E-02  2.723101257997E-02  1.781524243024E-01
H62  1.323605297106E-02 -2.723101257997E-02 -1.781524243024E-01
H63 -2.934320599222E-01  3.738189709447E-01  2.315403023459E-01
H64  2.934320599222E-01 -3.738189709447E-01 -2.315403023459E-01
H65  8.848523079738E-02 -1.058776105795E-01  4.141046350214E-02
H66 -8.848523079738E-02  1.058776105795E-01 -4.141046350214E-02
H67 -1.908480204612E-01  2.398121437045E-01  9.505229771820E-02
H68  1.908480204612E-01 -2.398121437045E-01 -9.505229771820E-02
H69  4.126867939976E-01 -7.963191667396E-02  2.739415398646E-01
H70 -4.126867939976E-01  7.963191667396E-02 -2.739415398646E-01
H71  4.895965184096E-01 -9.837588074606E-04  4.251234741151E-01
H72 -4.895965184096E-01  9.837588074607E-04 -4.251234741151E-01
H73 -1.829277236253E-01 -8.922504127354E-02  4.931628302130E-01
H74  1.829277236253E-01  8.922504127354E-02 -4.931628302130E-01
H75  7.286875829044E-02 -2.457153971642E-01  4.076083459704E-01
H76 -7.286875829044E-02  2.457153971642E-01 -4.076083459704E-01
H77 -4.855557118835E-01 -2.168848591448E-01  1.373766182989E-01
H78  4.855557118835E-01  2.168848591448E-01 -1.373766182989E-01
H79  1.750667155159E-01 -3.815600547750E-01  2.716282398042E-01
H80 -1.750667155159E-01  3.815600547750E-01 -2.716282398042E-01
H81 -3.825548213744E-01 -3.512692863233E-01  1.032990797399E-03
H82  3.825548213744E-01  3.512692863233E-01 -1.032990797399E-03
H83  2.782418889099E-01  4.838164023606E-01  1.353408844986E-01
H84 -2.782418889099E-01 -4.838164023606E-01 -1.353408844986E-01


#===END

data_OPT_STEP_32

_symmetry_space_group_name_H-M 'P 1'
_cell_length_a      6.44852566
_cell_length_b      7.73465427
_cell_length_c     16.44860441
_cell_angle_alpha   98.287487
_cell_angle_beta   92.374430
_cell_angle_gamma   96.133321

loop_
_atom_site_label
_atom_site_fract_x
_atom_site_fract_y
_atom_site_fract_z
C1  4.316319714333E-02  2.362171650849E-01  3.268272221997E-01
C2 -4.316319714333E-02 -2.362171650849E-01 -3.268272221997E-01
C3  9.381130985373E-02  3.475977087706E-01  3.995824874651E-01
C4 -9.381130985373E-02 -3.475977087706E-01 -3.995824874651E-01
C5  2.977799311769E-01  4.474866410044E-01  4.148795945767E-01
C6 -2.977799311769E-01 -4.474866410044E-01 -4.148795945767E-01
C7  4.460036435880E-01  4.323458540263E-01  3.571353249453E-01
C8 -4.460036435880E-01 -4.323458540263E-01 -3.571353249453E-01
C9  4.003133143310E-01  3.167408087675E-01  2.795867954901E-01
C10 -4.003133143310E-01 -3.167408087675E-01 -2.795867954901E-01
C11  1.930211469075E-01  2.166256867925E-01  2.639310669346E-01
C12 -1.930211469075E-01 -2.166256867925E-01 -2.639310669346E-01
C13  1.447570226035E-01  1.044463689392E-01  1.893758266644E-01
C14 -1.447570226035E-01 -1.044463689392E-01 -1.893758266644E-01
C15  2.937847544340E-01  8.443891086362E-02  1.277831288425E-01
C16 -2.937847544340E-01 -8.443891086362E-02 -1.277831288425E-01
C17 -4.981954701116E-01  1.844121511720E-01  1.435896031935E-01
C18  4.981954701116E-01 -1.844121511720E-01 -1.435896031935E-01
C19 -4.520556674079E-01  2.991986206461E-01  2.198054930164E-01
C20  4.520556674079E-01 -2.991986206461E-01 -2.198054930164E-01
C21  2.468000854135E-01 -2.975619794636E-02  5.283464652547E-02
C22 -2.468000854135E-01  2.975619794636E-02 -5.283464652547E-02
C23  3.958855912376E-01 -5.005897750037E-02 -7.904717807608E-03
C24 -3.958855912376E-01  5.005897750037E-02  7.904717807608E-03
C25 -3.495243849771E-01  1.648656378583E-01  8.334362468331E-02
C26  3.495243849771E-01 -1.648656378583E-01 -8.334362468331E-02
C27 -4.416353655098E-01 -1.154557158811E-01  3.033254967002E-01
C28  4.416353655098E-01  1.154557158811E-01 -3.033254967002E-01
C29 -3.995405857478E-01 -7.358151638714E-02  3.870139294707E-01
C30  3.995405857478E-01  7.358151638714E-02 -3.870139294707E-01
C31 -2.129564285863E-01 -1.219767938068E-01  4.256520234386E-01
C32  2.129564285863E-01  1.219767938068E-01 -4.256520234386E-01
C33 -7.243727515671E-02 -2.085729376873E-01  3.789688384857E-01
C34  7.243727515671E-02  2.085729376873E-01 -3.789688384857E-01
C35 -1.093256884725E-01 -2.552629568750E-01  2.906722808680E-01
C36  1.093256884725E-01  2.552629568750E-01 -2.906722808680E-01
C37 -2.999117078234E-01 -2.084257375624E-01  2.518980373054E-01
C38  2.999117078234E-01  2.084257375624E-01 -2.518980373054E-01
C39 -3.394248617220E-01 -2.521076182472E-01  1.667001240732E-01
C40  3.394248617220E-01  2.521076182472E-01 -1.667001240732E-01
C41 -1.978495261131E-01 -3.423142108341E-01  1.162536249286E-01
C42  1.978495261131E-01  3.423142108341E-01 -1.162536249286E-01
C43 -6.689894406132E-03 -3.891682063116E-01  1.551516842000E-01
C44  6.689894406132E-03  3.891682063116E-01 -1.551516842000E-01
C45  3.098429760249E-02 -3.438489577267E-01  2.422082467552E-01
C46 -3.098429760249E-02  3.438489577267E-01 -2.422082467552E-01
C47 -2.364751092080E-01 -3.864181091779E-01  3.031541217521E-02
C48  2.364751092080E-01  3.864181091779E-01 -3.031541217521E-02
C49 -9.553994281448E-02 -4.763445767528E-01 -1.948730079519E-02
C50  9.553994281448E-02  4.763445767528E-01  1.948730079519E-02
C51  1.339910897860E-01 -4.785290824021E-01  1.058997958009E-01
C52 -1.339910897860E-01  4.785290824021E-01 -1.058997958009E-01
H53 -1.136605174137E-01  1.592936508524E-01  3.152693462127E-01
H54  1.136605174137E-01 -1.592936508524E-01 -3.152693462127E-01
H55 -2.240127862102E-02  3.612567225903E-01  4.474992250120E-01
H56  2.240127862102E-02 -3.612567225903E-01 -4.474992250120E-01
H57  3.353329328660E-01 -4.631091131516E-01  4.740872109521E-01
H58 -3.353329328660E-01  4.631091131516E-01 -4.740872109521E-01
H59 -3.970265762479E-01 -4.906575786123E-01  3.688841388746E-01
H60  3.970265762479E-01  4.906575786123E-01 -3.688841388746E-01
H61 -1.281099634893E-02  2.843552917895E-02  1.775642992643E-01
H62  1.281099634893E-02 -2.843552917895E-02 -1.775642992643E-01
H63 -2.943534538618E-01  3.750561964280E-01  2.317897412913E-01
H64  2.943534538618E-01 -3.750561964280E-01 -2.317897412913E-01
H65  8.935415253355E-02 -1.060284414596E-01  4.106312125624E-02
H66 -8.935415253355E-02  1.060284414596E-01 -4.106312125624E-02
H67 -1.919367109118E-01  2.408588615465E-01  9.525980083083E-02
H68  1.919367109118E-01 -2.408588615465E-01 -9.525980083083E-02
H69  4.147530343679E-01 -7.824177952577E-02  2.738414680116E-01
H70 -4.147530343679E-01  7.824177952577E-02 -2.738414680116E-01
H71  4.911184828631E-01  9.302443517693E-05  4.252058821061E-01
H72 -4.911184828631E-01 -9.302443517685E-05 -4.252058821061E-01
H73 -1.822201427099E-01 -8.794706939631E-02  4.934085595958E-01
H74  1.822201427099E-01  8.794706939631E-02 -4.934085595958E-01
H75  7.324189729914E-02 -2.442002234249E-01  4.078275874470E-01
H76 -7.324189729914E-02  2.442002234249E-01 -4.078275874470E-01
H77 -4.844720979730E-01 -2.168237564990E-01  1.372745734001E-01
H78  4.844720979730E-01  2.168237564990E-01 -1.372745734001E-01
H79  1.749823733621E-01 -3.804951020754E-01  2.718593750515E-01
H80 -1.749823733621E-01  3.804951020754E-01 -2.718593750515E-01
H81 -3.811493316844E-01 -3.506174379687E-01  8.166121194895E-04
H82  3.811493316844E-01  3.506174379687E-01 -8.166121194895E-04
H83  2.784671992199E-01  4.854405407355E-01  1.354732865304E-01
H84 -2.784671992199E-01 -4.854405407355E-01 -1.354732865304E-01


#===END

data_OPT_STEP_33

_symmetry_space_group_name_H-M 'P 1'
_cell_length_a      6.44876898
_cell_length_b      7.73695098
_cell_length_c     16.43946383
_cell_angle_alpha   98.400971
_cell_angle_beta   92.581635
_cell_angle_gamma   96.160976

loop_
_atom_site_label
_atom_site_fract_x
_atom_site_fract_y
_atom_site_fract_z
C1  4.291997013310E-02  2.362074248707E-01  3.264313545251E-01
C2 -4.291997013310E-02 -2.362074248707E-01 -3.264313545251E-01
C3  9.347034471220E-02  3.477216906566E-01  3.993737570230E-01
C4 -9.347034471220E-02 -3.477216906566E-01 -3.993737570230E-01
C5  2.972611030617E-01  4.482781044918E-01  4.150130449385E-01
C6 -2.972611030617E-01 -4.482781044918E-01 -4.150130449385E-01
C7  4.456039274895E-01  4.332441901012E-01  3.574592550925E-01
C8 -4.456039274895E-01 -4.332441901012E-01 -3.574592550925E-01
C9  4.003896479366E-01  3.167508293813E-01  2.798945545162E-01
C10 -4.003896479366E-01 -3.167508293813E-01 -2.798945545162E-01
C11  1.930088956105E-01  2.165212598822E-01  2.637948615744E-01
C12 -1.930088956105E-01 -2.165212598822E-01 -2.637948615744E-01
C13  1.449060525433E-01  1.040089770975E-01  1.890934388566E-01
C14 -1.449060525433E-01 -1.040089770975E-01 -1.890934388566E-01
C15  2.941346518690E-01  8.378143402612E-02  1.277638122580E-01
C16 -2.941346518690E-01 -8.378143402612E-02 -1.277638122580E-01
C17 -4.977717066975E-01  1.838946250266E-01  1.439902127098E-01
C18  4.977717066975E-01 -1.838946250266E-01 -1.439902127098E-01
C19 -4.515854455168E-01  2.987450749187E-01  2.204255315379E-01
C20  4.515854455168E-01 -2.987450749187E-01 -2.204255315379E-01
C21  2.469788333665E-01 -3.027752756838E-02  5.256305357483E-02
C22 -2.469788333665E-01  3.027752756838E-02 -5.256305357483E-02
C23  3.958532310841E-01 -5.014246194410E-02 -8.106075857649E-03
C24 -3.958532310841E-01  5.014246194410E-02  8.106075857649E-03
C25 -3.494062875056E-01  1.650267945180E-01  8.375173659830E-02
C26  3.494062875056E-01 -1.650267945180E-01 -8.375173659830E-02
C27 -4.417864198685E-01 -1.162104144480E-01  3.033117734215E-01
C28  4.417864198685E-01  1.162104144480E-01 -3.033117734215E-01
C29 -3.991490802774E-01 -7.365217833961E-02  3.870923678213E-01
C30  3.991490802774E-01  7.365217833961E-02 -3.870923678213E-01
C31 -2.123740148665E-01 -1.214360019471E-01  4.259056870649E-01
C32  2.123740148665E-01  1.214360019471E-01 -4.259056870649E-01
C33 -7.157207486541E-02 -2.074069440103E-01  3.792508079052E-01
C34  7.157207486541E-02  2.074069440103E-01 -3.792508079052E-01
C35 -1.089692952525E-01 -2.547787739121E-01  2.908548650085E-01
C36  1.089692952525E-01  2.547787739121E-01 -2.908548650085E-01
C37 -3.000169539768E-01 -2.088907047862E-01  2.519190824722E-01
C38  3.000169539768E-01  2.088907047862E-01 -2.519190824722E-01
C39 -3.397409218595E-01 -2.528887433082E-01  1.666047580784E-01
C40  3.397409218595E-01  2.528887433082E-01 -1.666047580784E-01
C41 -1.981740041726E-01 -3.429601066580E-01  1.162323564359E-01
C42  1.981740041726E-01  3.429601066580E-01 -1.162323564359E-01
C43 -6.755354641507E-03 -3.892270014293E-01  1.553220737070E-01
C44  6.755354641507E-03  3.892270014293E-01 -1.553220737070E-01
C45  3.158281536545E-02 -3.429019745200E-01  2.424507097032E-01
C46 -3.158281536545E-02  3.429019745200E-01 -2.424507097032E-01
C47 -2.370615328986E-01 -3.874970175173E-01  3.018086401111E-02
C48  2.370615328986E-01  3.874970175173E-01 -3.018086401111E-02
C49 -9.581922797804E-02 -4.768432028123E-01 -1.956879242257E-02
C50  9.581922797804E-02  4.768432028123E-01  1.956879242257E-02
C51  1.341529262873E-01 -4.781821162524E-01  1.061372823752E-01
C52 -1.341529262873E-01  4.781821162524E-01 -1.061372823752E-01
H53 -1.140417143646E-01  1.593069593960E-01  3.145361108478E-01
H54  1.140417143646E-01 -1.593069593960E-01 -3.145361108478E-01
H55 -2.284937579719E-02  3.613970225456E-01  4.471336511656E-01
H56  2.284937579719E-02 -3.613970225456E-01 -4.471336511656E-01
H57  3.345247015179E-01 -4.618918127511E-01  4.743311843476E-01
H58 -3.345247015179E-01  4.618918127511E-01 -4.743311843476E-01
H59 -3.974654025679E-01 -4.894805715364E-01  3.694713958555E-01
H60  3.974654025679E-01  4.894805715364E-01 -3.694713958555E-01
H61 -1.279541465827E-02  2.804225023429E-02  1.769479737791E-01
H62  1.279541465827E-02 -2.804225023429E-02 -1.769479737791E-01
H63 -2.937949757298E-01  3.745939128128E-01  2.327221923694E-01
H64  2.937949757298E-01 -3.745939128128E-01 -2.327221923694E-01
H65  8.942186286032E-02 -1.065780842737E-01  4.049990206808E-02
H66 -8.942186286032E-02  1.065780842737E-01 -4.049990206808E-02
H67 -1.918119325367E-01  2.412630495702E-01  9.590383066047E-02
H68  1.918119325367E-01 -2.412630495702E-01 -9.590383066047E-02
H69  4.143135976461E-01 -7.944844788952E-02  2.737046472574E-01
H70 -4.143135976461E-01  7.944844788952E-02 -2.737046472574E-01
H71  4.914619543541E-01 -3.763281269066E-04  4.253597191149E-01
H72 -4.914619543541E-01  3.763281269067E-04 -4.253597191149E-01
H73 -1.817524681960E-01 -8.744508230284E-02  4.937976427606E-01
H74  1.817524681960E-01  8.744508230284E-02 -4.937976427606E-01
H75  7.468063545371E-02 -2.422345504290E-01  4.081354395930E-01
H76 -7.468063545371E-02  2.422345504290E-01 -4.081354395930E-01
H77 -4.850890526336E-01 -2.181310888556E-01  1.370382255947E-01
H78  4.850890526336E-01  2.181310888556E-01 -1.370382255947E-01
H79  1.763311327198E-01 -3.783973377868E-01  2.721987324880E-01
H80 -1.763311327198E-01  3.783973377868E-01 -2.721987324880E-01
H81 -3.822529869425E-01 -3.525460532996E-01  5.480852826184E-04
H82  3.822529869425E-01  3.525460532996E-01 -5.480852826184E-04
H83  2.790438648083E-01  4.864568787745E-01  1.358545020860E-01
H84 -2.790438648083E-01 -4.864568787745E-01 -1.358545020860E-01


#===END

data_OPT_STEP_34

_symmetry_space_group_name_H-M 'P 1'
_cell_length_a      6.44874629
_cell_length_b      7.73307897
_cell_length_c     16.44626067
_cell_angle_alpha   98.304868
_cell_angle_beta   92.417971
_cell_angle_gamma   96.138551

loop_
_atom_site_label
_atom_site_fract_x
_atom_site_fract_y
_atom_site_fract_z
C1  4.325456143754E-02  2.362854432499E-01  3.267554688900E-01
C2 -4.325456143754E-02 -2.362854432499E-01 -3.267554688900E-01
C3  9.388335882952E-02  3.477064344362E-01  3.995465292029E-01
C4 -9.388335882952E-02 -3.477064344362E-01 -3.995465292029E-01
C5  2.977823710505E-01  4.478247619772E-01  4.149039071715E-01
C6 -2.977823710505E-01 -4.478247619772E-01 -4.149039071715E-01
C7  4.460326466263E-01  4.326996937502E-01  3.571963211033E-01
C8 -4.460326466263E-01 -4.326996937502E-01 -3.571963211033E-01
C9  4.005163875506E-01  3.167299432838E-01  2.796818404582E-01
C10 -4.005163875506E-01 -3.167299432838E-01 -2.796818404582E-01
C11  1.931553414244E-01  2.166664451435E-01  2.639173567251E-01
C12 -1.931553414244E-01 -2.166664451435E-01 -2.639173567251E-01
C13  1.449425221572E-01  1.043326701379E-01  1.893504275787E-01
C14 -1.449425221572E-01 -1.043326701379E-01 -1.893504275787E-01
C15  2.940134656828E-01  8.420557328235E-02  1.278230157584E-01
C16 -2.940134656828E-01 -8.420557328235E-02 -1.278230157584E-01
C17 -4.979150755384E-01  1.841582470636E-01  1.437213395232E-01
C18  4.979150755384E-01 -1.841582470636E-01 -1.437213395232E-01
C19 -4.517279663764E-01  2.989779354862E-01  2.199844051064E-01
C20  4.517279663764E-01 -2.989779354862E-01 -2.199844051064E-01
C21  2.468547197265E-01 -2.980955551156E-02  5.278431356905E-02
C22 -2.468547197265E-01  2.980955551156E-02 -5.278431356905E-02
C23  3.958304393663E-01 -4.999919484392E-02 -7.960679268461E-03
C24 -3.958304393663E-01  4.999919484392E-02  7.960679268461E-03
C25 -3.493985649853E-01  1.648405496700E-01  8.344001806578E-02
C26  3.493985649853E-01 -1.648405496700E-01 -8.344001806578E-02
C27 -4.416751885312E-01 -1.156478028951E-01  3.033432121005E-01
C28  4.416751885312E-01  1.156478028951E-01 -3.033432121005E-01
C29 -3.994186889893E-01 -7.358997531819E-02  3.870469108775E-01
C30  3.994186889893E-01  7.358997531819E-02 -3.870469108775E-01
C31 -2.128464340856E-01 -1.218885800711E-01  4.257101531950E-01
C32  2.128464340856E-01  1.218885800711E-01 -4.257101531950E-01
C33 -7.220888244434E-02 -2.082520783146E-01  3.790187225457E-01
C34  7.220888244434E-02  2.082520783146E-01 -3.790187225457E-01
C35 -1.092134020523E-01 -2.550848198732E-01  2.907026645842E-01
C36  1.092134020523E-01  2.550848198732E-01 -2.907026645842E-01
C37 -2.999243724340E-01 -2.085144092118E-01  2.519105531998E-01
C38  2.999243724340E-01  2.085144092118E-01 -2.519105531998E-01
C39 -3.395014263097E-01 -2.522831626051E-01  1.666921564356E-01
C40  3.395014263097E-01  2.522831626051E-01 -1.666921564356E-01
C41 -1.979370518224E-01 -3.424725332581E-01  1.162568333881E-01
C42  1.979370518224E-01  3.424725332581E-01 -1.162568333881E-01
C43 -6.736816220148E-03 -3.892092770917E-01  1.551859640622E-01
C44  6.736816220148E-03  3.892092770917E-01 -1.551859640622E-01
C45  3.122456220143E-02 -3.434612095658E-01  2.422408618246E-01
C46 -3.122456220143E-02  3.434612095658E-01 -2.422408618246E-01
C47 -2.367139968982E-01 -3.868114856489E-01  3.030558512423E-02
C48  2.367139968982E-01  3.868114856489E-01 -3.030558512423E-02
C49 -9.566095563000E-02 -4.765443216460E-01 -1.949349819750E-02
C50  9.566095563000E-02  4.765443216460E-01  1.949349819750E-02
C51  1.340221821089E-01 -4.784542481579E-01  1.059438066641E-01
C52 -1.340221821089E-01  4.784542481579E-01 -1.059438066641E-01
H53 -1.136626890795E-01  1.594871685649E-01  3.150929172701E-01
H54  1.136626890795E-01 -1.594871685649E-01 -3.150929172701E-01
H55 -2.236717039889E-02  3.614097182499E-01  4.474166656428E-01
H56  2.236717039889E-02 -3.614097182499E-01 -4.474166656428E-01
H57  3.351778846905E-01 -4.625372680332E-01  4.741122375174E-01
H58 -3.351778846905E-01  4.625372680332E-01 -4.741122375174E-01
H59 -3.970508469776E-01 -4.901653847168E-01  3.689866457312E-01
H60  3.970508469776E-01  4.901653847168E-01 -3.689866457312E-01
H61 -1.269163443753E-02  2.840082972144E-02  1.774511148115E-01
H62  1.269163443753E-02 -2.840082972144E-02 -1.774511148115E-01
H63 -2.940577019456E-01  3.749103531179E-01  2.320148153026E-01
H64  2.940577019456E-01 -3.749103531179E-01 -2.320148153026E-01
H65  8.929351068190E-02 -1.059239574583E-01  4.091658903165E-02
H66 -8.929351068190E-02  1.059239574583E-01 -4.091658903165E-02
H67 -1.918211864622E-01  2.409168438233E-01  9.539165905612E-02
H68  1.918211864622E-01 -2.409168438233E-01 -9.539165905612E-02
H69  4.146675986250E-01 -7.849328509447E-02  2.738340441834E-01
H70 -4.146675986250E-01  7.849328509447E-02 -2.738340441834E-01
H71  4.913073723831E-01  3.598880157949E-05  4.252817197490E-01
H72 -4.913073723831E-01 -3.598880157941E-05 -4.252817197490E-01
H73 -1.822908967015E-01 -8.806762765762E-02  4.935122450305E-01
H74  1.822908967015E-01  8.806762765762E-02 -4.935122450305E-01
H75  7.361783422651E-02 -2.436685236619E-01  4.078704771651E-01
H76 -7.361783422651E-02  2.436685236619E-01 -4.078704771651E-01
H77 -4.845593523711E-01 -2.170249310170E-01  1.372319175894E-01
H78  4.845593523711E-01  2.170249310170E-01 -1.372319175894E-01
H79  1.755300317495E-01 -3.796580320183E-01  2.718981593693E-01
H80 -1.755300317495E-01  3.796580320183E-01 -2.718981593693E-01
H81 -3.815952262826E-01 -3.513308931894E-01  7.861667659996E-04
H82  3.815952262826E-01  3.513308931894E-01 -7.861667659996E-04
H83  2.786291260757E-01  4.857101501982E-01  1.355457424992E-01
H84 -2.786291260757E-01 -4.857101501982E-01 -1.355457424992E-01


#===END

data_OPT_STEP_35

_symmetry_space_group_name_H-M 'P 1'
_cell_length_a      6.45169060
_cell_length_b      7.72871378
_cell_length_c     16.44544708
_cell_angle_alpha   98.294880
_cell_angle_beta   92.425532
_cell_angle_gamma   96.127103

loop_
_atom_site_label
_atom_site_fract_x
_atom_site_fract_y
_atom_site_fract_z
C1  4.378510758616E-02  2.360004917676E-01  3.268217760987E-01
C2 -4.378510758616E-02 -2.360004917676E-01 -3.268217760987E-01
C3  9.413821517220E-02  3.478191736099E-01  3.995316060516E-01
C4 -9.413821517220E-02 -3.478191736099E-01 -3.995316060516E-01
C5  2.979692887261E-01  4.479228393528E-01  4.149268246014E-01
C6 -2.979692887261E-01 -4.479228393528E-01 -4.149268246014E-01
C7  4.462091671168E-01  4.327475792171E-01  3.572367716740E-01
C8 -4.462091671168E-01 -4.327475792171E-01 -3.572367716740E-01
C9  4.007230275301E-01  3.167640952970E-01  2.797106483776E-01
C10 -4.007230275301E-01 -3.167640952970E-01 -2.797106483776E-01
C11  1.934803063425E-01  2.166558283771E-01  2.639392548998E-01
C12 -1.934803063425E-01 -2.166558283771E-01 -2.639392548998E-01
C13  1.454526302351E-01  1.039929786354E-01  1.894416178682E-01
C14 -1.454526302351E-01 -1.039929786354E-01 -1.894416178682E-01
C15  2.942566859523E-01  8.415405095800E-02  1.278483768567E-01
C16 -2.942566859523E-01 -8.415405095800E-02 -1.278483768567E-01
C17 -4.977897171865E-01  1.841488078802E-01  1.437475273236E-01
C18  4.977897171865E-01 -1.841488078802E-01 -1.437475273236E-01
C19 -4.516566854221E-01  2.991126635021E-01  2.199930022450E-01
C20  4.516566854221E-01 -2.991126635021E-01 -2.199930022450E-01
C21  2.470149207411E-01 -2.976564231263E-02  5.277994799515E-02
C22 -2.470149207411E-01  2.976564231263E-02 -5.277994799515E-02
C23  3.958290721272E-01 -4.991093427503E-02 -7.986275452077E-03
C24 -3.958290721272E-01  4.991093427503E-02  7.986275452077E-03
C25 -3.492592755352E-01  1.645912636859E-01  8.351436055336E-02
C26  3.492592755352E-01 -1.645912636859E-01 -8.351436055336E-02
C27 -4.416271971430E-01 -1.155118147548E-01  3.033000017156E-01
C28  4.416271971430E-01  1.155118147548E-01 -3.033000017156E-01
C29 -3.997275019335E-01 -7.392348361693E-02  3.870382725941E-01
C30  3.997275019335E-01  7.392348361693E-02 -3.870382725941E-01
C31 -2.131208784145E-01 -1.219789692069E-01  4.256824346382E-01
C32  2.131208784145E-01  1.219789692069E-01 -4.256824346382E-01
C33 -7.240072801677E-02 -2.081938924402E-01  3.789942272673E-01
C34  7.240072801677E-02  2.081938924402E-01 -3.789942272673E-01
C35 -1.093139830828E-01 -2.549756317972E-01  2.906747143706E-01
C36  1.093139830828E-01  2.549756317972E-01 -2.906747143706E-01
C37 -2.998057661014E-01 -2.082412815743E-01  2.518663406889E-01
C38  2.998057661014E-01  2.082412815743E-01 -2.518663406889E-01
C39 -3.394823681193E-01 -2.522396261731E-01  1.666629808803E-01
C40  3.394823681193E-01  2.522396261731E-01 -1.666629808803E-01
C41 -1.979959562787E-01 -3.425232797237E-01  1.162443879103E-01
C42  1.979959562787E-01  3.425232797237E-01 -1.162443879103E-01
C43 -6.892959953835E-03 -3.892534137405E-01  1.551815142576E-01
C44  6.892959953835E-03  3.892534137405E-01 -1.551815142576E-01
C45  3.081331178727E-02 -3.437736744838E-01  2.422522176339E-01
C46 -3.081331178727E-02  3.437736744838E-01 -2.422522176339E-01
C47 -2.369104825084E-01 -3.871752708270E-01  3.031173452684E-02
C48  2.369104825084E-01  3.871752708270E-01 -3.031173452684E-02
C49 -9.574065138671E-02 -4.767311550148E-01 -1.948543700092E-02
C50  9.574065138671E-02  4.767311550148E-01  1.948543700092E-02
C51  1.338947908060E-01 -4.784535739110E-01  1.059491330065E-01
C52 -1.338947908060E-01  4.784535739110E-01 -1.059491330065E-01
H53 -1.130558245254E-01  1.592150619490E-01  3.151165143503E-01
H54  1.130558245254E-01 -1.592150619490E-01 -3.151165143503E-01
H55 -2.205283371408E-02  3.614658171629E-01  4.473860491581E-01
H56  2.205283371408E-02 -3.614658171629E-01 -4.473860491581E-01
H57  3.351932929724E-01 -4.622232307854E-01  4.741053928490E-01
H58 -3.351932929724E-01  4.622232307854E-01 -4.741053928490E-01
H59 -3.970838689059E-01 -4.898905457843E-01  3.690099307822E-01
H60  3.970838689059E-01  4.898905457843E-01 -3.690099307822E-01
H61 -1.214296312625E-02  2.814665652087E-02  1.774975599746E-01
H62  1.214296312625E-02 -2.814665652087E-02 -1.774975599746E-01
H63 -2.944644998549E-01  3.756995689228E-01  2.318887473069E-01
H64  2.944644998549E-01 -3.756995689228E-01 -2.318887473069E-01
H65  8.925123205404E-02 -1.053556991692E-01  4.076854474759E-02
H66 -8.925123205404E-02  1.053556991692E-01 -4.076854474759E-02
H67 -1.915559639797E-01  2.402996765429E-01  9.556911896899E-02
H68  1.915559639797E-01 -2.402996765429E-01 -9.556911896899E-02
H69  4.146439736052E-01 -7.853858615307E-02  2.737866501426E-01
H70 -4.146439736052E-01  7.853858615307E-02 -2.737866501426E-01
H71  4.913032730775E-01 -7.766153198892E-05  4.253103127852E-01
H72 -4.913032730775E-01  7.766153198903E-05 -4.253103127852E-01
H73 -1.827266635031E-01 -8.825491845451E-02  4.934945772829E-01
H74  1.827266635031E-01  8.825491845451E-02 -4.934945772829E-01
H75  7.324925434965E-02 -2.436437766707E-01  4.078882449967E-01
H76 -7.324925434965E-02  2.436437766707E-01 -4.078882449967E-01
H77 -4.841266733019E-01 -2.164484914141E-01  1.371523572368E-01
H78  4.841266733019E-01  2.164484914141E-01 -1.371523572368E-01
H79  1.752301238634E-01 -3.797255353835E-01  2.719079758626E-01
H80 -1.752301238634E-01  3.797255353835E-01 -2.719079758626E-01
H81 -3.818228178034E-01 -3.518324965761E-01  7.843941592680E-04
H82  3.818228178034E-01  3.518324965761E-01 -7.843941592680E-04
H83  2.785347511530E-01  4.858409144662E-01  1.355591811846E-01
H84 -2.785347511530E-01 -4.858409144662E-01 -1.355591811846E-01


#===END

data_OPT_STEP_36

_symmetry_space_group_name_H-M 'P 1'
_cell_length_a      6.45168563
_cell_length_b      7.72834212
_cell_length_c     16.44525552
_cell_angle_alpha   98.297653
_cell_angle_beta   92.430477
_cell_angle_gamma   96.128717

loop_
_atom_site_label
_atom_site_fract_x
_atom_site_fract_y
_atom_site_fract_z
C1  4.376714811596E-02  2.360403465080E-01  3.268075196508E-01
C2 -4.376714811596E-02 -2.360403465080E-01 -3.268075196508E-01
C3  9.412203094840E-02  3.478616703656E-01  3.995242907502E-01
C4 -9.412203094840E-02 -3.478616703656E-01 -3.995242907502E-01
C5  2.979650470165E-01  4.479604410861E-01  4.149350803703E-01
C6 -2.979650470165E-01 -4.479604410861E-01 -4.149350803703E-01
C7  4.462265455607E-01  4.327529091893E-01  3.572580571390E-01
C8 -4.462265455607E-01 -4.327529091893E-01 -3.572580571390E-01
C9  4.007574614841E-01  3.167310557875E-01  2.797334183634E-01
C10 -4.007574614841E-01 -3.167310557875E-01 -2.797334183634E-01
C11  1.935164073050E-01  2.166054806464E-01  2.639528006239E-01
C12 -1.935164073050E-01 -2.166054806464E-01 -2.639528006239E-01
C13  1.454287251929E-01  1.040418646594E-01  1.894240421481E-01
C14 -1.454287251929E-01 -1.040418646594E-01 -1.894240421481E-01
C15  2.942334672273E-01  8.420371304091E-02  1.278355623230E-01
C16 -2.942334672273E-01 -8.420371304091E-02 -1.278355623230E-01
C17 -4.977793136285E-01  1.841534045747E-01  1.437584678895E-01
C18  4.977793136285E-01 -1.841534045747E-01 -1.437584678895E-01
C19 -4.515951042315E-01  2.990344137779E-01  2.200320247843E-01
C20  4.515951042315E-01 -2.990344137779E-01 -2.200320247843E-01
C21  2.470345999841E-01 -2.980642646554E-02  5.278150160169E-02
C22 -2.470345999841E-01  2.980642646554E-02 -5.278150160169E-02
C23  3.958387181917E-01 -4.993510415669E-02 -7.986411417287E-03
C24 -3.958387181917E-01  4.993510415669E-02  7.986411417287E-03
C25 -3.492678709407E-01  1.646290681820E-01  8.351949016916E-02
C26  3.492678709407E-01 -1.646290681820E-01 -8.351949016916E-02
C27 -4.416912967605E-01 -1.156017159973E-01  3.033028946992E-01
C28  4.416912967605E-01  1.156017159973E-01 -3.033028946992E-01
C29 -3.997458095222E-01 -7.397013789651E-02  3.870405604608E-01
C30  3.997458095222E-01  7.397013789651E-02 -3.870405604608E-01
C31 -2.131339957427E-01 -1.220337751948E-01  4.256895795637E-01
C32  2.131339957427E-01  1.220337751948E-01 -4.256895795637E-01
C33 -7.238792343280E-02 -2.082116256429E-01  3.790018720034E-01
C34  7.238792343280E-02  2.082116256429E-01 -3.790018720034E-01
C35 -1.093011443581E-01 -2.549737386022E-01  2.906786372671E-01
C36  1.093011443581E-01  2.549737386022E-01 -2.906786372671E-01
C37 -2.998792980132E-01 -2.083461110990E-01  2.518722493076E-01
C38  2.998792980132E-01  2.083461110990E-01 -2.518722493076E-01
C39 -3.395634857694E-01 -2.523532401288E-01  1.666654986770E-01
C40  3.395634857694E-01  2.523532401288E-01 -1.666654986770E-01
C41 -1.980550676274E-01 -3.426060258984E-01  1.162476407170E-01
C42  1.980550676274E-01  3.426060258984E-01 -1.162476407170E-01
C43 -6.832079994539E-03 -3.891748197661E-01  1.551795227511E-01
C44  6.832079994539E-03  3.891748197661E-01 -1.551795227511E-01
C45  3.089603922914E-02 -3.436727635141E-01  2.422510553143E-01
C46 -3.089603922914E-02  3.436727635141E-01 -2.422510553143E-01
C47 -2.369560744264E-01 -3.872380694671E-01  3.031038103125E-02
C48  2.369560744264E-01  3.872380694671E-01 -3.031038103125E-02
C49 -9.576537498295E-02 -4.767614831636E-01 -1.948605093640E-02
C50  9.576537498295E-02  4.767614831636E-01  1.948605093640E-02
C51  1.339783223866E-01 -4.783429726808E-01  1.059475227290E-01
C52 -1.339783223866E-01  4.783429726808E-01 -1.059475227290E-01
H53 -1.130799840623E-01  1.592560512636E-01  3.150872924904E-01
H54  1.130799840623E-01 -1.592560512636E-01 -3.150872924904E-01
H55 -2.206912531993E-02  3.615041943548E-01  4.473732678269E-01
H56  2.206912531993E-02 -3.615041943548E-01 -4.473732678269E-01
H57  3.351424282182E-01 -4.621136542164E-01  4.741075814491E-01
H58 -3.351424282182E-01  4.621136542164E-01 -4.741075814491E-01
H59 -3.970582396701E-01 -4.898938195195E-01  3.690478832426E-01
H60  3.970582396701E-01  4.898938195195E-01 -3.690478832426E-01
H61 -1.218911093310E-02  2.822779746673E-02  1.774591467265E-01
H62  1.218911093310E-02 -2.822779746673E-02 -1.774591467265E-01
H63 -2.943394264642E-01  3.755119676624E-01  2.319674177899E-01
H64  2.943394264642E-01 -3.755119676624E-01 -2.319674177899E-01
H65  8.931329422341E-02 -1.054865802491E-01  4.078065518315E-02
H66 -8.931329422341E-02  1.054865802491E-01 -4.078065518315E-02
H67 -1.915563474745E-01  2.403314152264E-01  9.558701885155E-02
H68  1.915563474745E-01 -2.403314152264E-01 -9.558701885155E-02
H69  4.145283211002E-01 -7.870251677483E-02  2.737898995538E-01
H70 -4.145283211002E-01  7.870251677483E-02 -2.737898995538E-01
H71  4.913079004099E-01 -1.279247767783E-04  4.253245172588E-01
H72 -4.913079004099E-01  1.279247767784E-04 -4.253245172588E-01
H73 -1.827104482037E-01 -8.825989763865E-02  4.935027993556E-01
H74  1.827104482037E-01  8.825989763865E-02 -4.935027993556E-01
H75  7.327700540281E-02 -2.436202601270E-01  4.078991208620E-01
H76 -7.327700540281E-02  2.436202601270E-01 -4.078991208620E-01
H77 -4.842689656894E-01 -2.166575893431E-01  1.371552985125E-01
H78  4.842689656894E-01  2.166575893431E-01 -1.371552985125E-01
H79  1.753752983879E-01 -3.795294104073E-01  2.719054394356E-01
H80 -1.753752983879E-01  3.795294104073E-01 -2.719054394356E-01
H81 -3.818827957784E-01 -3.519224615105E-01  7.781160329298E-04
H82  3.818827957784E-01  3.519224615105E-01 -7.781160329298E-04
H83  2.786679161224E-01  4.860301886752E-01  1.355585666762E-01
H84 -2.786679161224E-01 -4.860301886752E-01 -1.355585666762E-01


#===END

data_OPT_STEP_37

_symmetry_space_group_name_H-M 'P 1'
_cell_length_a      6.45419160
_cell_length_b      7.72605381
_cell_length_c     16.44430707
_cell_angle_alpha   98.291832
_cell_angle_beta   92.431253
_cell_angle_gamma   96.126543

loop_
_atom_site_label
_atom_site_fract_x
_atom_site_fract_y
_atom_site_fract_z
C1  4.377611567322E-02  2.362023377599E-01  3.267837214372E-01
C2 -4.377611567322E-02 -2.362023377599E-01 -3.267837214372E-01
C3  9.421430894823E-02  3.478599330283E-01  3.995502919180E-01
C4 -9.421430894823E-02 -3.478599330283E-01 -3.995502919180E-01
C5  2.979319834234E-01  4.480391155136E-01  4.149371942622E-01
C6 -2.979319834234E-01 -4.480391155136E-01 -4.149371942622E-01
C7  4.461175049947E-01  4.328503818167E-01  3.572552715871E-01
C8 -4.461175049947E-01 -4.328503818167E-01 -3.572552715871E-01
C9  4.006849718534E-01  3.167991235934E-01  2.797293124352E-01
C10 -4.006849718534E-01 -3.167991235934E-01 -2.797293124352E-01
C11  1.935331869894E-01  2.166486533980E-01  2.639512648826E-01
C12 -1.935331869894E-01 -2.166486533980E-01 -2.639512648826E-01
C13  1.454282454607E-01  1.041513946351E-01  1.893968497110E-01
C14 -1.454282454607E-01 -1.041513946351E-01 -1.893968497110E-01
C15  2.942794829976E-01  8.417553986723E-02  1.278434826397E-01
C16 -2.942794829976E-01 -8.417553986723E-02 -1.278434826397E-01
C17 -4.978006846486E-01  1.841106069350E-01  1.437800117015E-01
C18  4.978006846486E-01 -1.841106069350E-01 -1.437800117015E-01
C19 -4.517369839576E-01  2.991330078703E-01  2.200216547087E-01
C20  4.517369839576E-01 -2.991330078703E-01 -2.200216547087E-01
C21  2.470311581078E-01 -2.967371345989E-02  5.273888019659E-02
C22 -2.470311581078E-01  2.967371345989E-02 -5.273888019659E-02
C23  3.958511358682E-01 -4.988837567849E-02 -8.004764711865E-03
C24 -3.958511358682E-01  4.988837567849E-02  8.004764711865E-03
C25 -3.493801902617E-01  1.646800795230E-01  8.352305936066E-02
C26  3.493801902617E-01 -1.646800795230E-01 -8.352305936066E-02
C27 -4.418419862466E-01 -1.158009003818E-01  3.032807165577E-01
C28  4.418419862466E-01  1.158009003818E-01 -3.032807165577E-01
C29 -3.996821778924E-01 -7.380911434008E-02  3.870002467363E-01
C30  3.996821778924E-01  7.380911434008E-02 -3.870002467363E-01
C31 -2.130750428020E-01 -1.219157593440E-01  4.256726546538E-01
C32  2.130750428020E-01  1.219157593440E-01 -4.256726546538E-01
C33 -7.243053329969E-02 -2.082486876208E-01  3.790108313274E-01
C34  7.243053329969E-02  2.082486876208E-01 -3.790108313274E-01
C35 -1.093247803536E-01 -2.550144490740E-01  2.906861015236E-01
C36  1.093247803536E-01  2.550144490740E-01 -2.906861015236E-01
C37 -3.000380562915E-01 -2.085771616008E-01  2.518720683969E-01
C38  3.000380562915E-01  2.085771616008E-01 -2.518720683969E-01
C39 -3.395172576270E-01 -2.523475481321E-01  1.666387638102E-01
C40  3.395172576270E-01  2.523475481321E-01 -1.666387638102E-01
C41 -1.980741679206E-01 -3.426746919181E-01  1.162383697870E-01
C42  1.980741679206E-01  3.426746919181E-01 -1.162383697870E-01
C43 -6.837561795531E-03 -3.891792103101E-01  1.551842955182E-01
C44  6.837561795531E-03  3.891792103101E-01 -1.551842955182E-01
C45  3.109088758829E-02 -3.433630162075E-01  2.422386725640E-01
C46 -3.109088758829E-02  3.433630162075E-01 -2.422386725640E-01
C47 -2.369236979434E-01 -3.872744839196E-01  3.029436572734E-02
C48  2.369236979434E-01  3.872744839196E-01 -3.029436572734E-02
C49 -9.570471400306E-02 -4.767047989054E-01 -1.949835963185E-02
C50  9.570471400306E-02  4.767047989054E-01  1.949835963185E-02
C51  1.339449830303E-01 -4.783230694068E-01  1.059568912462E-01
C52 -1.339449830303E-01  4.783230694068E-01 -1.059568912462E-01
H53 -1.129487483960E-01  1.592797967983E-01  3.150825163929E-01
H54  1.129487483960E-01 -1.592797967983E-01 -3.150825163929E-01
H55 -2.192718493253E-02  3.614612801392E-01  4.474045870565E-01
H56  2.192718493253E-02 -3.614612801392E-01 -4.474045870565E-01
H57  3.351127183120E-01 -4.620564724869E-01  4.741234339437E-01
H58 -3.351127183120E-01  4.620564724869E-01 -4.741234339437E-01
H59 -3.971750839250E-01 -4.898752118740E-01  3.690810273340E-01
H60  3.971750839250E-01  4.898752118740E-01 -3.690810273340E-01
H61 -1.202986407597E-02  2.811712625298E-02  1.774685670637E-01
H62  1.202986407597E-02 -2.811712625298E-02 -1.774685670637E-01
H63 -2.944063049288E-01  3.753978506064E-01  2.320244645243E-01
H64  2.944063049288E-01 -3.753978506064E-01 -2.320244645243E-01
H65  8.947535709889E-02 -1.055688636223E-01  4.077587353947E-02
H66 -8.947535709889E-02  1.055688636223E-01 -4.077587353947E-02
H67 -1.918304908149E-01  2.405681438874E-01  9.556150882219E-02
H68  1.918304908149E-01 -2.405681438874E-01 -9.556150882219E-02
H69  4.144618078085E-01 -7.884985172600E-02  2.737460561082E-01
H70 -4.144618078085E-01  7.884985172600E-02 -2.737460561082E-01
H71  4.912867478165E-01 -1.157008293823E-04  4.252920555987E-01
H72 -4.912867478165E-01  1.157008293824E-04 -4.252920555987E-01
H73 -1.826065860425E-01 -8.805658516866E-02  4.934814653340E-01
H74  1.826065860425E-01  8.805658516866E-02 -4.934814653340E-01
H75  7.305268614325E-02 -2.437568913583E-01  4.079636770434E-01
H76 -7.305268614325E-02  2.437568913583E-01 -4.079636770434E-01
H77 -4.843194507599E-01 -2.168663375908E-01  1.371301151652E-01
H78  4.843194507599E-01  2.168663375908E-01 -1.371301151652E-01
H79  1.754629887963E-01 -3.792843527720E-01  2.719082780151E-01
H80 -1.754629887963E-01  3.792843527720E-01 -2.719082780151E-01
H81 -3.818403022090E-01 -3.520190221187E-01  7.567502044972E-04
H82  3.818403022090E-01  3.520190221187E-01 -7.567502044972E-04
H83  2.785699388320E-01  4.860514040677E-01  1.355767905368E-01
H84 -2.785699388320E-01 -4.860514040677E-01 -1.355767905368E-01


#===END

data_OPT_STEP_38

_symmetry_space_group_name_H-M 'P 1'
_cell_length_a      6.45636801
_cell_length_b      7.72426001
_cell_length_c     16.44343632
_cell_angle_alpha   98.302731
_cell_angle_beta   92.450409
_cell_angle_gamma   96.132759

loop_
_atom_site_label
_atom_site_fract_x
_atom_site_fract_y
_atom_site_fract_z
C1  4.376056044438E-02  2.362101745414E-01  3.267224413612E-01
C2 -4.376056044438E-02 -2.362101745414E-01 -3.267224413612E-01
C3  9.418290167679E-02  3.478594535304E-01  3.995229046662E-01
C4 -9.418290167679E-02 -3.478594535304E-01 -3.995229046662E-01
C5  2.978470064815E-01  4.480709533552E-01  4.149635513040E-01
C6 -2.978470064815E-01 -4.480709533552E-01 -4.149635513040E-01
C7  4.459912111324E-01  4.329311123943E-01  3.572991231776E-01
C8 -4.459912111324E-01 -4.329311123943E-01 -3.572991231776E-01
C9  4.006124797711E-01  3.168231157471E-01  2.797565235565E-01
C10 -4.006124797711E-01 -3.168231157471E-01 -2.797565235565E-01
C11  1.935126982652E-01  2.166433216426E-01  2.639214487723E-01
C12 -1.935126982652E-01 -2.166433216426E-01 -2.639214487723E-01
C13  1.454503443333E-01  1.041145629214E-01  1.893429895221E-01
C14 -1.454503443333E-01 -1.041145629214E-01 -1.893429895221E-01
C15  2.942880331202E-01  8.415159166286E-02  1.278166314686E-01
C16 -2.942880331202E-01 -8.415159166286E-02 -1.278166314686E-01
C17 -4.978556384493E-01  1.841362281903E-01  1.438071779788E-01
C18  4.978556384493E-01 -1.841362281903E-01 -1.438071779788E-01
C19 -4.518196955639E-01  2.991608737454E-01  2.200779052152E-01
C20  4.518196955639E-01 -2.991608737454E-01 -2.200779052152E-01
C21  2.471060865730E-01 -2.976657335107E-02  5.269740214506E-02
C22 -2.471060865730E-01  2.976657335107E-02 -5.269740214506E-02
C23  3.958994144111E-01 -4.994178063738E-02 -8.024951393132E-03
C24 -3.958994144111E-01  4.994178063738E-02  8.024951393132E-03
C25 -3.494529991323E-01  1.647256884924E-01  8.357619222886E-02
C26  3.494529991323E-01 -1.647256884924E-01 -8.357619222886E-02
C27 -4.417465346259E-01 -1.157811307049E-01  3.032642002402E-01
C28  4.417465346259E-01  1.157811307049E-01 -3.032642002402E-01
C29 -3.996124337197E-01 -7.377543889887E-02  3.869985728304E-01
C30  3.996124337197E-01  7.377543889888E-02 -3.869985728304E-01
C31 -2.130825071937E-01 -1.218960090643E-01  4.256998835591E-01
C32  2.130825071937E-01  1.218960090643E-01 -4.256998835591E-01
C33 -7.245314615093E-02 -2.082002624845E-01  3.790475559000E-01
C34  7.245314615093E-02  2.082002624845E-01 -3.790475559000E-01
C35 -1.093142095435E-01 -2.549639933830E-01  2.907072234736E-01
C36  1.093142095435E-01  2.549639933830E-01 -2.907072234736E-01
C37 -2.999711676236E-01 -2.085496039717E-01  2.518665081476E-01
C38  2.999711676236E-01  2.085496039717E-01 -2.518665081476E-01
C39 -3.394690826125E-01 -2.523964086370E-01  1.666224020653E-01
C40  3.394690826125E-01  2.523964086370E-01 -1.666224020653E-01
C41 -1.980366826759E-01 -3.426834068507E-01  1.162300373365E-01
C42  1.980366826759E-01  3.426834068507E-01 -1.162300373365E-01
C43 -6.833218552796E-03 -3.891291574806E-01  1.552002687175E-01
C44  6.833218552796E-03  3.891291574806E-01 -1.552002687175E-01
C45  3.107768278537E-02 -3.432918467918E-01  2.422686932367E-01
C46 -3.107768278537E-02  3.432918467918E-01 -2.422686932367E-01
C47 -2.368659652198E-01 -3.872994652682E-01  3.027158686015E-02
C48  2.368659652198E-01  3.872994652682E-01 -3.027158686015E-02
C49 -9.569783235814E-02 -4.767479773145E-01 -1.950958402394E-02
C50  9.569783235814E-02  4.767479773145E-01  1.950958402394E-02
C51  1.339172059392E-01 -4.782636102794E-01  1.059824647017E-01
C52 -1.339172059392E-01  4.782636102794E-01 -1.059824647017E-01
H53 -1.129368117268E-01  1.592871878606E-01  3.149796544324E-01
H54  1.129368117268E-01 -1.592871878606E-01 -3.149796544324E-01
H55 -2.192857127687E-02  3.614292716660E-01  4.473650609090E-01
H56  2.192857127687E-02 -3.614292716660E-01 -4.473650609090E-01
H57  3.350400144365E-01 -4.620628633602E-01  4.741795613710E-01
H58 -3.350400144365E-01  4.620628633602E-01 -4.741795613710E-01
H59 -3.973616368868E-01 -4.897338842187E-01  3.691532147984E-01
H60  3.973616368868E-01  4.897338842187E-01 -3.691532147984E-01
H61 -1.196354217612E-02  2.804679199719E-02  1.773793548553E-01
H62  1.196354217612E-02 -2.804679199719E-02 -1.773793548553E-01
H63 -2.945151873584E-01  3.754268588111E-01  2.321242351526E-01
H64  2.945151873584E-01 -3.754268588111E-01 -2.321242351526E-01
H65  8.961314981634E-02 -1.057270744559E-01  4.070645193097E-02
H66 -8.961314981634E-02  1.057270744559E-01 -4.070645193097E-02
H67 -1.919504733562E-01  2.406486088773E-01  9.565002891524E-02
H68  1.919504733562E-01 -2.406486088773E-01 -9.565002891524E-02
H69  4.145978753131E-01 -7.884417315826E-02  2.737107692142E-01
H70 -4.145978753131E-01  7.884417315826E-02 -2.737107692142E-01
H71  4.913861892296E-01 -7.737144522552E-05  4.252830404565E-01
H72 -4.913861892296E-01  7.737144522563E-05 -4.252830404565E-01
H73 -1.826533258846E-01 -8.806117289148E-02  4.935205707015E-01
H74  1.826533258846E-01  8.806117289148E-02 -4.935205707015E-01
H75  7.300014129118E-02 -2.436708115512E-01  4.080202259150E-01
H76 -7.300014129118E-02  2.436708115512E-01 -4.080202259150E-01
H77 -4.842635393847E-01 -2.169776400718E-01  1.370990562336E-01
H78  4.842635393847E-01  2.169776400718E-01 -1.370990562336E-01
H79  1.754090036651E-01 -3.791964667471E-01  2.719563478704E-01
H80 -1.754090036651E-01  3.791964667471E-01 -2.719563478704E-01
H81 -3.817315546548E-01 -3.520439501344E-01  7.155349260494E-04
H82  3.817315546548E-01  3.520439501344E-01 -7.155349260494E-04
H83  2.784887368407E-01  4.861091335833E-01  1.356210551255E-01
H84 -2.784887368407E-01 -4.861091335833E-01 -1.356210551255E-01


#===END

data_OPT_STEP_39

_symmetry_space_group_name_H-M 'P 1'
_cell_length_a      6.45942782
_cell_length_b      7.72306771
_cell_length_c     16.43856176
_cell_angle_alpha   98.310841
_cell_angle_beta   92.495768
_cell_angle_gamma   96.150021

loop_
_atom_site_label
_atom_site_fract_x
_atom_site_fract_y
_atom_site_fract_z
C1  4.372387067395E-02  2.362101136164E-01  3.266181489839E-01
C2 -4.372387067395E-02 -2.362101136164E-01 -3.266181489839E-01
C3  9.409798898006E-02  3.478994642981E-01  3.994669844096E-01
C4 -9.409798898006E-02 -3.478994642981E-01 -3.994669844096E-01
C5  2.977170484878E-01  4.481461460007E-01  4.150154520429E-01
C6 -2.977170484878E-01 -4.481461460007E-01 -4.150154520429E-01
C7  4.459069895214E-01  4.329132792386E-01  3.574242751561E-01
C8 -4.459069895214E-01 -4.329132792386E-01 -3.574242751561E-01
C9  4.005552740309E-01  3.168039499843E-01  2.798279264139E-01
C10 -4.005552740309E-01 -3.168039499843E-01 -2.798279264139E-01
C11  1.934738371927E-01  2.166512607563E-01  2.638702367223E-01
C12 -1.934738371927E-01 -2.166512607563E-01 -2.638702367223E-01
C13  1.454121282153E-01  1.041774264421E-01  1.892203235445E-01
C14 -1.454121282153E-01 -1.041774264421E-01 -1.892203235445E-01
C15  2.942124575793E-01  8.428247734684E-02  1.277320725476E-01
C16 -2.942124575793E-01 -8.428247734684E-02 -1.277320725476E-01
C17 -4.979731495230E-01  1.842819616836E-01  1.438347709942E-01
C18  4.979731495230E-01 -1.842819616836E-01 -1.438347709942E-01
C19 -4.518648901770E-01  2.991272406033E-01  2.202064348045E-01
C20  4.518648901770E-01 -2.991272406033E-01 -2.202064348045E-01
C21  2.471945549933E-01 -2.988179575144E-02  5.261633845173E-02
C22 -2.471945549933E-01  2.988179575144E-02 -5.261633845173E-02
C23  3.959856462752E-01 -5.006307741392E-02 -8.051966188164E-03
C24 -3.959856462752E-01  5.006307741392E-02  8.051966188164E-03
C25 -3.495893402855E-01  1.648923696936E-01  8.364941347885E-02
C26  3.495893402855E-01 -1.648923696936E-01 -8.364941347885E-02
C27 -4.415511218783E-01 -1.158965992965E-01  3.032438818857E-01
C28  4.415511218783E-01  1.158965992965E-01 -3.032438818857E-01
C29 -3.993027610941E-01 -7.368028295025E-02  3.870042608335E-01
C30  3.993027610941E-01  7.368028295025E-02 -3.870042608335E-01
C31 -2.127434063891E-01 -1.215591640866E-01  4.257573473531E-01
C32  2.127434063891E-01  1.215591640866E-01 -4.257573473531E-01
C33 -7.224450634919E-02 -2.079196309249E-01  3.791344787886E-01
C34  7.224450634919E-02  2.079196309249E-01 -3.791344787886E-01
C35 -1.092049789500E-01 -2.548606584829E-01  2.907672169666E-01
C36  1.092049789500E-01  2.548606584829E-01 -2.907672169666E-01
C37 -2.998046544998E-01 -2.085773601993E-01  2.518660894634E-01
C38  2.998046544998E-01  2.085773601993E-01 -2.518660894634E-01
C39 -3.393944049189E-01 -2.526109047051E-01  1.665931015415E-01
C40  3.393944049189E-01  2.526109047051E-01 -1.665931015415E-01
C41 -1.980462533392E-01 -3.428824739188E-01  1.162248821427E-01
C42  1.980462533392E-01  3.428824739188E-01 -1.162248821427E-01
C43 -6.851145174279E-03 -3.891338484189E-01  1.552526013040E-01
C44  6.851145174279E-03  3.891338484189E-01 -1.552526013040E-01
C45  3.103305465641E-02 -3.432733043198E-01  2.423597315696E-01
C46 -3.103305465641E-02  3.432733043198E-01 -2.423597315696E-01
C47 -2.368542207746E-01 -3.875203618392E-01  3.022535613564E-02
C48  2.368542207746E-01  3.875203618392E-01 -3.022535613564E-02
C49 -9.572065167797E-02 -4.768816037632E-01 -1.953583590990E-02
C50  9.572065167797E-02  4.768816037632E-01  1.953583590990E-02
C51  1.339487265619E-01 -4.780641657540E-01  1.060470195528E-01
C52 -1.339487265619E-01  4.780641657540E-01 -1.060470195528E-01
H53 -1.129238400680E-01  1.592300533345E-01  3.147974666064E-01
H54  1.129238400680E-01 -1.592300533345E-01 -3.147974666064E-01
H55 -2.199206262173E-02  3.614426596231E-01  4.472763027090E-01
H56  2.199206262173E-02 -3.614426596231E-01 -4.472763027090E-01
H57  3.347726557470E-01 -4.617980582563E-01  4.742445992336E-01
H58 -3.347726557470E-01  4.617980582563E-01 -4.742445992336E-01
H59 -3.974811390162E-01 -4.897342566780E-01  3.693662706002E-01
H60  3.974811390162E-01  4.897342566780E-01 -3.693662706002E-01
H61 -1.201602086126E-02  2.816230002539E-02  1.771499368945E-01
H62  1.201602086126E-02 -2.816230002539E-02 -1.771499368945E-01
H63 -2.945470624539E-01  3.753293828662E-01  2.323614612046E-01
H64  2.945470624539E-01 -3.753293828662E-01 -2.323614612046E-01
H65  8.978469418241E-02 -1.059542175416E-01  4.056210390093E-02
H66 -8.978469418241E-02  1.059542175416E-01 -4.056210390093E-02
H67 -1.921107774389E-01  2.408073963800E-01  9.581473846881E-02
H68  1.921107774389E-01 -2.408073963800E-01 -9.581473846881E-02
H69  4.147411351303E-01 -7.915040218846E-02  2.736446786142E-01
H70 -4.147411351303E-01  7.915040218846E-02 -2.736446786142E-01
H71  4.917317645008E-01 -5.835434383549E-05  4.252975309027E-01
H72 -4.917317645008E-01  5.835434383557E-05 -4.252975309027E-01
H73 -1.821557941669E-01 -8.743321579615E-02  4.935960111115E-01
H74  1.821557941669E-01  8.743321579615E-02 -4.935960111115E-01
H75  7.319867695870E-02 -2.432688526538E-01  4.081566987040E-01
H76 -7.319867695870E-02  2.432688526538E-01 -4.081566987040E-01
H77 -4.842242678728E-01 -2.173623189596E-01  1.370235345534E-01
H78  4.842242678728E-01  2.173623189596E-01 -1.370235345534E-01
H79  1.754326561598E-01 -3.789327668569E-01  2.720897882443E-01
H80 -1.754326561598E-01  3.789327668569E-01 -2.720897882443E-01
H81 -3.817042143764E-01 -3.523740115547E-01  6.180690961583E-04
H82  3.817042143764E-01  3.523740115547E-01 -6.180690961583E-04
H83  2.786201305473E-01  4.866012071101E-01  1.357243836941E-01
H84 -2.786201305473E-01 -4.866012071101E-01 -1.357243836941E-01


#===END

data_OPT_STEP_40

_symmetry_space_group_name_H-M 'P 1'
_cell_length_a      6.46404029
_cell_length_b      7.71767362
_cell_length_c     16.43629678
_cell_angle_alpha   98.296199
_cell_angle_beta   92.501850
_cell_angle_gamma   96.163568

loop_
_atom_site_label
_atom_site_fract_x
_atom_site_fract_y
_atom_site_fract_z
C1  4.402030449848E-02  2.361630367546E-01  3.266148707761E-01
C2 -4.402030449848E-02 -2.361630367546E-01 -3.266148707761E-01
C3  9.428350541561E-02  3.480293051345E-01  3.994446680188E-01
C4 -9.428350541561E-02 -3.480293051345E-01 -3.994446680188E-01
C5  2.977874306699E-01  4.483370433530E-01  4.150159680458E-01
C6 -2.977874306699E-01 -4.483370433530E-01 -4.150159680458E-01
C7  4.458711511981E-01  4.331677991273E-01  3.574237976077E-01
C8 -4.458711511981E-01 -4.331677991273E-01 -3.574237976077E-01
C9  4.006166920092E-01  3.168896080436E-01  2.798456078588E-01
C10 -4.006166920092E-01 -3.168896080436E-01 -2.798456078588E-01
C11  1.937232991344E-01  2.165486591796E-01  2.638960467106E-01
C12 -1.937232991344E-01 -2.165486591796E-01 -2.638960467106E-01
C13  1.456499172617E-01  1.041142791928E-01  1.892152668730E-01
C14 -1.456499172617E-01 -1.041142791928E-01 -1.892152668730E-01
C15  2.943484190187E-01  8.425647365059E-02  1.277300037050E-01
C16 -2.943484190187E-01 -8.425647365059E-02 -1.277300037050E-01
C17 -4.979149151318E-01  1.842507960670E-01  1.438705957565E-01
C18  4.979149151318E-01 -1.842507960670E-01 -1.438705957565E-01
C19 -4.518052677054E-01  2.990928968187E-01  2.202673418594E-01
C20  4.518052677054E-01 -2.990928968187E-01 -2.202673418594E-01
C21  2.473386206649E-01 -2.992663316698E-02  5.259562895644E-02
C22 -2.473386206649E-01  2.992663316698E-02 -5.259562895644E-02
C23  3.959910743619E-01 -5.000053301551E-02 -8.086639997208E-03
C24 -3.959910743619E-01  5.000053301551E-02  8.086639997208E-03
C25 -3.495944738420E-01  1.648274630502E-01  8.370717491381E-02
C26  3.495944738420E-01 -1.648274630502E-01 -8.370717491381E-02
C27 -4.413237529913E-01 -1.157714347141E-01  3.032043464278E-01
C28  4.413237529913E-01  1.157714347141E-01 -3.032043464278E-01
C29 -3.992976455671E-01 -7.375720024328E-02  3.869898970191E-01
C30  3.992976455671E-01  7.375720024328E-02 -3.869898970191E-01
C31 -2.131639253445E-01 -1.219952773196E-01  4.257870444318E-01
C32  2.131639253445E-01  1.219952773196E-01 -4.257870444318E-01
C33 -7.263351750172E-02 -2.082017428052E-01  3.791711104354E-01
C34  7.263351750172E-02  2.082017428052E-01 -3.791711104354E-01
C35 -1.093345658303E-01 -2.548943200235E-01  2.907793946321E-01
C36  1.093345658303E-01  2.548943200235E-01 -2.907793946321E-01
C37 -2.997496729073E-01 -2.086063081616E-01  2.518553148684E-01
C38  2.997496729073E-01  2.086063081616E-01 -2.518553148684E-01
C39 -3.392879012381E-01 -2.526770365254E-01  1.665726840436E-01
C40  3.392879012381E-01  2.526770365254E-01 -1.665726840436E-01
C41 -1.978705002835E-01 -3.427355778487E-01  1.162023526186E-01
C42  1.978705002835E-01  3.427355778487E-01 -1.162023526186E-01
C43 -6.710472075249E-03 -3.887743375252E-01  1.552424548698E-01
C44  6.710472075249E-03  3.887743375252E-01 -1.552424548698E-01
C45  3.097061534236E-02 -3.430771690035E-01  2.423712813840E-01
C46 -3.097061534236E-02  3.430771690035E-01 -2.423712813840E-01
C47 -2.366388111081E-01 -3.874340545307E-01  3.019267102139E-02
C48  2.366388111081E-01  3.874340545307E-01 -3.019267102139E-02
C49 -9.563617780253E-02 -4.768905319715E-01 -1.954936923012E-02
C50  9.563617780253E-02  4.768905319715E-01  1.954936923012E-02
C51  1.339316469759E-01 -4.778240892753E-01  1.060581678561E-01
C52 -1.339316469759E-01  4.778240892753E-01 -1.060581678561E-01
H53 -1.125766367077E-01  1.592345663695E-01  3.147401387907E-01
H54  1.125766367077E-01 -1.592345663695E-01 -3.147401387907E-01
H55 -2.172758194706E-02  3.615272194638E-01  4.472445683706E-01
H56  2.172758194706E-02 -3.615272194638E-01 -4.472445683706E-01
H57  3.347669126857E-01 -4.615271799549E-01  4.742475769743E-01
H58 -3.347669126857E-01  4.615271799549E-01 -4.742475769743E-01
H59 -3.977174993800E-01 -4.892537250266E-01  3.693538483942E-01
H60  3.977174993800E-01  4.892537250266E-01 -3.693538483942E-01
H61 -1.176070582499E-02  2.819053373414E-02  1.770817460476E-01
H62  1.176070582499E-02 -2.819053373414E-02 -1.770817460476E-01
H63 -2.945763146495E-01  3.753291073839E-01  2.324582931980E-01
H64  2.945763146495E-01 -3.753291073839E-01 -2.324582931980E-01
H65  9.000319178073E-02 -1.059958024093E-01  4.050122047430E-02
H66 -9.000319178073E-02  1.059958024093E-01 -4.050122047430E-02
H67 -1.922129202057E-01  2.407675014691E-01  9.590624725769E-02
H68  1.922129202057E-01 -2.407675014691E-01 -9.590624725769E-02
H69  4.150780624847E-01 -7.903079640719E-02  2.735709798358E-01
H70 -4.150780624847E-01  7.903079640719E-02 -2.735709798358E-01
H71  4.919561167939E-01  3.748408243894E-05  4.252776301611E-01
H72 -4.919561167939E-01 -3.748408243886E-05 -4.252776301611E-01
H73 -1.828291165198E-01 -8.813589651792E-02  4.936514057575E-01
H74  1.828291165198E-01  8.813589651793E-02 -4.936514057575E-01
H75  7.262806865320E-02 -2.435713873749E-01  4.082588689217E-01
H76 -7.262806865320E-02  2.435713873749E-01 -4.082588689217E-01
H77 -4.839650412379E-01 -2.173567405550E-01  1.369704078473E-01
H78  4.839650412379E-01  2.173567405550E-01 -1.369704078473E-01
H79  1.753356151613E-01 -3.785897397951E-01  2.721215364767E-01
H80 -1.753356151613E-01  3.785897397951E-01 -2.721215364767E-01
H81 -3.813682409856E-01 -3.522877004156E-01  5.590297392537E-04
H82  3.813682409856E-01  3.522877004156E-01 -5.590297392537E-04
H83  2.784936654814E-01  4.868795167540E-01  1.357591809108E-01
H84 -2.784936654814E-01 -4.868795167540E-01 -1.357591809108E-01


#===END

data_OPT_STEP_41

_symmetry_space_group_name_H-M 'P 1'
_cell_length_a      6.46505589
_cell_length_b      7.71684818
_cell_length_c     16.43592533
_cell_angle_alpha   98.302154
_cell_angle_beta   92.512034
_cell_angle_gamma   96.165096

loop_
_atom_site_label
_atom_site_fract_x
_atom_site_fract_y
_atom_site_fract_z
C1  4.401727356073E-02  2.361365061543E-01  3.265877574549E-01
C2 -4.401727356073E-02 -2.361365061543E-01 -3.265877574549E-01
C3  9.426964471440E-02  3.479955779505E-01  3.994347790624E-01
C4 -9.426964471440E-02 -3.479955779505E-01 -3.994347790624E-01
C5  2.977392179254E-01  4.483311637798E-01  4.150320383072E-01
C6 -2.977392179254E-01 -4.483311637798E-01 -4.150320383072E-01
C7  4.458003117431E-01  4.331963986394E-01  3.574474676226E-01
C8 -4.458003117431E-01 -4.331963986394E-01 -3.574474676226E-01
C9  4.005611122931E-01  3.169186670351E-01  2.798543247527E-01
C10 -4.005611122931E-01 -3.169186670351E-01 -2.798543247527E-01
C11  1.937059351047E-01  2.165432038173E-01  2.638795100849E-01
C12 -1.937059351047E-01 -2.165432038173E-01 -2.638795100849E-01
C13  1.456534782859E-01  1.040992980189E-01  1.891853482216E-01
C14 -1.456534782859E-01 -1.040992980189E-01 -1.891853482216E-01
C15  2.943425771770E-01  8.425587199148E-02  1.277126114806E-01
C16 -2.943425771770E-01 -8.425587199148E-02 -1.277126114806E-01
C17 -4.979576806051E-01  1.842829557962E-01  1.438794587352E-01
C18  4.979576806051E-01 -1.842829557962E-01 -1.438794587352E-01
C19 -4.518749811150E-01  2.991440817631E-01  2.202867485728E-01
C20  4.518749811150E-01 -2.991440817631E-01 -2.202867485728E-01
C21  2.473582006658E-01 -2.994318068774E-02  5.256634059875E-02
C22 -2.473582006658E-01  2.994318068774E-02 -5.256634059875E-02
C23  3.960098252577E-01 -5.001751753764E-02 -8.099620847916E-03
C24 -3.960098252577E-01  5.001751753764E-02  8.099620847916E-03
C25 -3.496440927119E-01  1.648707490527E-01  8.372940960824E-02
C26  3.496440927119E-01 -1.648707490527E-01 -8.372940960824E-02
C27 -4.413149364182E-01 -1.157748037318E-01  3.031929189177E-01
C28  4.413149364182E-01  1.157748037318E-01 -3.031929189177E-01
C29 -3.993105834315E-01 -7.376727644227E-02  3.869868919375E-01
C30  3.993105834315E-01  7.376727644227E-02 -3.869868919375E-01
C31 -2.131832139193E-01 -1.219680325175E-01  4.257966135139E-01
C32  2.131832139193E-01  1.219680325175E-01 -4.257966135139E-01
C33 -7.264976492298E-02 -2.081505273796E-01  3.791858787193E-01
C34  7.264976492298E-02  2.081505273796E-01 -3.791858787193E-01
C35 -1.093432607740E-01 -2.548592776381E-01  2.907873267297E-01
C36  1.093432607740E-01  2.548592776381E-01 -2.907873267297E-01
C37 -2.997422806433E-01 -2.085939553136E-01  2.518490754316E-01
C38  2.997422806433E-01  2.085939553136E-01 -2.518490754316E-01
C39 -3.392646135120E-01 -2.526698067783E-01  1.665586188958E-01
C40  3.392646135120E-01  2.526698067783E-01 -1.665586188958E-01
C41 -1.978653971488E-01 -3.427379595948E-01  1.161957514836E-01
C42  1.978653971488E-01  3.427379595948E-01 -1.161957514836E-01
C43 -6.729778783897E-03 -3.887661025804E-01  1.552511020326E-01
C44  6.729778783897E-03  3.887661025804E-01 -1.552511020326E-01
C45  3.094828039171E-02 -3.430457798890E-01  2.423863399865E-01
C46 -3.094828039171E-02  3.430457798890E-01 -2.423863399865E-01
C47 -2.366260894104E-01 -3.874543232182E-01  3.017915118164E-02
C48  2.366260894104E-01  3.874543232182E-01 -3.017915118164E-02
C49 -9.562240471540E-02 -4.768933297588E-01 -1.955712959295E-02
C50  9.562240471540E-02  4.768933297588E-01  1.955712959295E-02
C51  1.339010951410E-01 -4.778169841399E-01  1.060738055306E-01
C52 -1.339010951410E-01  4.778169841399E-01 -1.060738055306E-01
H53 -1.125585907337E-01  1.591931517208E-01  3.146949429455E-01
H54  1.125585907337E-01 -1.591931517208E-01 -3.146949429455E-01
H55 -2.173021045903E-02  3.614786355962E-01  4.472277080405E-01
H56  2.173021045903E-02 -3.614786355962E-01 -4.472277080405E-01
H57  3.347208921110E-01 -4.615487726469E-01  4.742779177630E-01
H58 -3.347208921110E-01  4.615487726469E-01 -4.742779177630E-01
H59 -3.978077911174E-01 -4.892134055479E-01  3.693962701831E-01
H60  3.978077911174E-01  4.892134055479E-01 -3.693962701831E-01
H61 -1.173174913025E-02  2.815266366819E-02  1.770350756740E-01
H62  1.173174913025E-02 -2.815266366819E-02 -1.770350756740E-01
H63 -2.946738035076E-01  3.754070623600E-01  2.324934884582E-01
H64  2.946738035076E-01 -3.754070623600E-01 -2.324934884582E-01
H65  9.004372788617E-02 -1.060270857798E-01  4.045293368760E-02
H66 -9.004372788617E-02  1.060270857798E-01 -4.045293368760E-02
H67 -1.922825931676E-01  2.408236893231E-01  9.594784731919E-02
H68  1.922825931676E-01 -2.408236893231E-01 -9.594784731919E-02
H69  4.151028872196E-01 -7.904385580661E-02  2.735501422257E-01
H70 -4.151028872196E-01  7.904385580661E-02 -2.735501422257E-01
H71  4.919465252037E-01  1.578073385190E-05  4.252720866533E-01
H72 -4.919465252037E-01 -1.578073385182E-05 -4.252720866533E-01
H73 -1.828551018673E-01 -8.809963851296E-02  4.936659568931E-01
H74  1.828551018673E-01  8.809963851296E-02 -4.936659568931E-01
H75  7.260500789550E-02 -2.434971103482E-01  4.082821171350E-01
H76 -7.260500789550E-02  2.434971103482E-01 -4.082821171350E-01
H77 -4.839234622846E-01 -2.173571527953E-01  1.369462471528E-01
H78  4.839234622846E-01  2.173571527953E-01 -1.369462471528E-01
H79  1.752937938029E-01 -3.785531533289E-01  2.721466029630E-01
H80 -1.752937938029E-01  3.785531533289E-01 -2.721466029630E-01
H81 -3.813460371893E-01 -3.523283806554E-01  5.361160805902E-04
H82  3.813460371893E-01  3.523283806554E-01 -5.361160805902E-04
H83  2.784409628507E-01  4.868882744269E-01  1.357852719445E-01
H84 -2.784409628507E-01 -4.868882744269E-01 -1.357852719445E-01


#===END

data_OPT_STEP_42

_symmetry_space_group_name_H-M 'P 1'
_cell_length_a      6.46794349
_cell_length_b      7.71481223
_cell_length_c     16.43307603
_cell_angle_alpha   98.294696
_cell_angle_beta   92.526975
_cell_angle_gamma   96.172455

loop_
_atom_site_label
_atom_site_fract_x
_atom_site_fract_y
_atom_site_fract_z
C1  4.410032487378E-02  2.362146821259E-01  3.265420554302E-01
C2 -4.410032487378E-02 -2.362146821259E-01 -3.265420554302E-01
C3  9.434092015977E-02  3.480705620119E-01  3.994101325157E-01
C4 -9.434092015977E-02 -3.480705620119E-01 -3.994101325157E-01
C5  2.977507569324E-01  4.484060919537E-01  4.150456922351E-01
C6 -2.977507569324E-01 -4.484060919537E-01 -4.150456922351E-01
C7  4.457861384120E-01  4.332409099039E-01  3.574843984231E-01
C8 -4.457861384120E-01 -4.332409099039E-01 -3.574843984231E-01
C9  4.005639775767E-01  3.169570689324E-01  2.798728577268E-01
C10 -4.005639775767E-01 -3.169570689324E-01 -2.798728577268E-01
C11  1.937481515823E-01  2.166159910682E-01  2.638510721502E-01
C12 -1.937481515823E-01 -2.166159910682E-01 -2.638510721502E-01
C13  1.457526308783E-01  1.040949529326E-01  1.891546976327E-01
C14 -1.457526308783E-01 -1.040949529326E-01 -1.891546976327E-01
C15  2.944164073134E-01  8.422166265742E-02  1.277058109703E-01
C16 -2.944164073134E-01 -8.422166265742E-02 -1.277058109703E-01
C17 -4.979585650237E-01  1.842791906115E-01  1.439047420940E-01
C18  4.979585650237E-01 -1.842791906115E-01 -1.439047420940E-01
C19 -4.519225116271E-01  2.991978397552E-01  2.203180054649E-01
C20  4.519225116271E-01 -2.991978397552E-01 -2.203180054649E-01
C21  2.474477041486E-01 -2.998001786938E-02  5.253933993098E-02
C22 -2.474477041486E-01  2.998001786938E-02 -5.253933993098E-02
C23  3.960535633706E-01 -5.004441829874E-02 -8.112724131461E-03
C24 -3.960535633706E-01  5.004441829874E-02  8.112724131461E-03
C25 -3.496961018878E-01  1.648890263419E-01  8.376538495145E-02
C26  3.496961018878E-01 -1.648890263419E-01 -8.376538495145E-02
C27 -4.412530139280E-01 -1.157789533605E-01  3.031567338855E-01
C28  4.412530139280E-01  1.157789533605E-01 -3.031567338855E-01
C29 -3.992621992738E-01 -7.373213664966E-02  3.869674129190E-01
C30  3.992621992738E-01  7.373213664966E-02 -3.869674129190E-01
C31 -2.131590186081E-01 -1.218421016252E-01  4.258093103083E-01
C32  2.131590186081E-01  1.218421016252E-01 -4.258093103083E-01
C33 -7.269392333405E-02 -2.080552153665E-01  3.792186385196E-01
C34  7.269392333405E-02  2.080552153665E-01 -3.792186385196E-01
C35 -1.093636803608E-01 -2.547906980264E-01  2.908036110996E-01
C36  1.093636803608E-01  2.547906980264E-01 -2.908036110996E-01
C37 -2.997021796149E-01 -2.085651238961E-01  2.518273151545E-01
C38  2.997021796149E-01  2.085651238961E-01 -2.518273151545E-01
C39 -3.392185603246E-01 -2.527044074476E-01  1.665210189515E-01
C40  3.392185603246E-01  2.527044074476E-01 -1.665210189515E-01
C41 -1.978511627180E-01 -3.427599630701E-01  1.161762959768E-01
C42  1.978511627180E-01  3.427599630701E-01 -1.161762959768E-01
C43 -6.786447213706E-03 -3.887615043449E-01  1.552717599340E-01
C44  6.786447213706E-03  3.887615043449E-01 -1.552717599340E-01
C45  3.089222956215E-02 -3.429740070677E-01  2.424218127129E-01
C46 -3.089222956215E-02  3.429740070677E-01 -2.424218127129E-01
C47 -2.365804328744E-01 -3.875072233196E-01  3.014186185157E-02
C48  2.365804328744E-01  3.875072233196E-01 -3.014186185157E-02
C49 -9.561235353504E-02 -4.769433404998E-01 -1.957508101304E-02
C50  9.561235353504E-02  4.769433404998E-01  1.957508101304E-02
C51  1.338519767966E-01 -4.777493767105E-01  1.061102862042E-01
C52 -1.338519767966E-01  4.777493767105E-01 -1.061102862042E-01
H53 -1.124199884118E-01  1.592515253832E-01  3.146266836739E-01
H54  1.124199884118E-01 -1.592515253832E-01 -3.146266836739E-01
H55 -2.161801969724E-02  3.615382555501E-01  4.471942657816E-01
H56  2.161801969724E-02 -3.615382555501E-01 -4.471942657816E-01
H57  3.347251510468E-01 -4.614745014198E-01  4.743053598431E-01
H58 -3.347251510468E-01  4.614745014198E-01 -4.743053598431E-01
H59 -3.978534822404E-01 -4.891929289315E-01  3.694655421369E-01
H60  3.978534822404E-01  4.891929289315E-01 -3.694655421369E-01
H61 -1.155398387835E-02  2.808626560687E-02  1.769909240223E-01
H62  1.155398387835E-02 -2.808626560687E-02 -1.769909240223E-01
H63 -2.947796511976E-01  3.754858702387E-01  2.325464367215E-01
H64  2.947796511976E-01 -3.754858702387E-01 -2.325464367215E-01
H65  9.018259163739E-02 -1.060740290804E-01  4.039987451441E-02
H66 -9.018259163739E-02  1.060740290804E-01 -4.039987451441E-02
H67 -1.923808384154E-01  2.408466271948E-01  9.601089042923E-02
H68  1.923808384154E-01 -2.408466271948E-01 -9.601089042923E-02
H69  4.152080047836E-01 -7.908922809929E-02  2.734907637766E-01
H70 -4.152080047836E-01  7.908922809929E-02 -2.734907637766E-01
H71  4.920156298335E-01  2.557616243094E-05  4.252435865901E-01
H72 -4.920156298335E-01 -2.557616243086E-05 -4.252435865901E-01
H73 -1.828436351926E-01 -8.794932574458E-02  4.936896983754E-01
H74  1.828436351926E-01  8.794932574458E-02 -4.936896983754E-01
H75  7.250446270097E-02 -2.433849152552E-01  4.083375172570E-01
H76 -7.250446270097E-02  2.433849152552E-01 -4.083375172570E-01
H77 -4.838620720651E-01 -2.174792529875E-01  1.368866374602E-01
H78  4.838620720651E-01  2.174792529875E-01 -1.368866374602E-01
H79  1.751610216223E-01 -3.784891091255E-01  2.722100830884E-01
H80 -1.751610216223E-01  3.784891091255E-01 -2.722100830884E-01
H81 -3.812533599191E-01 -3.524216404454E-01  4.726703815530E-04
H82  3.812533599191E-01  3.524216404454E-01 -4.726703815530E-04
H83  2.783411031404E-01  4.869878088803E-01  1.358480476344E-01
H84 -2.783411031404E-01 -4.869878088803E-01 -1.358480476344E-01


#===END

data_OPT_STEP_43

_symmetry_space_group_name_H-M 'P 1'
_cell_length_a      6.47203100
_cell_length_b      7.71458680
_cell_length_c     16.42759674
_cell_angle_alpha   98.303340
_cell_angle_beta   92.569194
_cell_angle_gamma   96.178331

loop_
_atom_site_label
_atom_site_fract_x
_atom_site_fract_y
_atom_site_fract_z
C1  4.406408923968E-02  2.361245285570E-01  3.264609516431E-01
C2 -4.406408923968E-02 -2.361245285570E-01 -3.264609516431E-01
C3  9.424964170805E-02  3.479381917237E-01  3.993935600471E-01
C4 -9.424964170805E-02 -3.479381917237E-01 -3.993935600471E-01
C5  2.974761882271E-01  4.484229910137E-01  4.151036338419E-01
C6 -2.974761882271E-01 -4.484229910137E-01 -4.151036338419E-01
C7  4.453706116320E-01  4.334763802207E-01  3.575419746800E-01
C8 -4.453706116320E-01 -4.334763802207E-01 -3.575419746800E-01
C9  4.002834912867E-01  3.170934857389E-01  2.799000129871E-01
C10 -4.002834912867E-01 -3.170934857389E-01 -2.799000129871E-01
C11  1.936403815529E-01  2.166276480669E-01  2.637962542003E-01
C12 -1.936403815529E-01 -2.166276480669E-01 -2.637962542003E-01
C13  1.457796485306E-01  1.040082206499E-01  1.890677586727E-01
C14 -1.457796485306E-01 -1.040082206499E-01 -1.890677586727E-01
C15  2.944228776467E-01  8.415730790713E-02  1.276668160771E-01
C16 -2.944228776467E-01 -8.415730790713E-02 -1.276668160771E-01
C17 -4.981446424240E-01  1.843741987869E-01  1.439408449690E-01
C18  4.981446424240E-01 -1.843741987869E-01 -1.439408449690E-01
C19 -4.522730008864E-01  2.994311608574E-01  2.203736230320E-01
C20  4.522730008864E-01 -2.994311608574E-01 -2.203736230320E-01
C21  2.475422670294E-01 -3.004157564435E-02  5.244437821455E-02
C22 -2.475422670294E-01  3.004157564435E-02 -5.244437821455E-02
C23  3.961232938855E-01 -5.007672923460E-02 -8.162166318112E-03
C24 -3.961232938855E-01  5.007672923460E-02  8.162166318112E-03
C25 -3.498603002131E-01  1.649322755298E-01  8.386740864115E-02
C26  3.498603002131E-01 -1.649322755298E-01 -8.386740864115E-02
C27 -4.411851835695E-01 -1.158002310056E-01  3.030841903999E-01
C28  4.411851835695E-01  1.158002310056E-01 -3.030841903999E-01
C29 -3.991418938146E-01 -7.354839155759E-02  3.869276257361E-01
C30  3.991418938146E-01  7.354839155759E-02 -3.869276257361E-01
C31 -2.130691846832E-01 -1.214864759322E-01  4.258508566366E-01
C32  2.130691846832E-01  1.214864759322E-01 -4.258508566366E-01
C33 -7.264605238844E-02 -2.076738460890E-01  3.792997838927E-01
C34  7.264605238844E-02  2.076738460890E-01 -3.792997838927E-01
C35 -1.094026687813E-01 -2.546736778662E-01  2.908560879808E-01
C36  1.094026687813E-01  2.546736778662E-01 -2.908560879808E-01
C37 -2.996685848075E-01 -2.085536297138E-01  2.517930008628E-01
C38  2.996685848075E-01  2.085536297138E-01 -2.517930008628E-01
C39 -3.391172916839E-01 -2.527269931708E-01  1.664417733850E-01
C40  3.391172916839E-01  2.527269931708E-01 -1.664417733850E-01
C41 -1.978386255040E-01 -3.428245578390E-01  1.161409623416E-01
C42  1.978386255040E-01  3.428245578390E-01 -1.161409623416E-01
C43 -6.875001059024E-03 -3.887555751809E-01  1.553242414158E-01
C44  6.875001059024E-03  3.887555751809E-01 -1.553242414158E-01
C45  3.076532645247E-02 -3.429064886328E-01  2.425166657480E-01
C46 -3.076532645247E-02  3.429064886328E-01 -2.425166657480E-01
C47 -2.365531611870E-01 -3.876763205204E-01  3.006761540835E-02
C48  2.365531611870E-01  3.876763205204E-01 -3.006761540835E-02
C49 -9.557753066314E-02 -4.770020167661E-01 -1.961706837279E-02
C50  9.557753066314E-02  4.770020167661E-01  1.961706837279E-02
C51  1.337184411608E-01 -4.777157906712E-01  1.061999357655E-01
C52 -1.337184411608E-01  4.777157906712E-01 -1.061999357655E-01
H53 -1.123108603014E-01  1.590245084484E-01  3.144977878496E-01
H54  1.123108603014E-01 -1.590245084484E-01 -3.144977878496E-01
H55 -2.166230554166E-02  3.613251634565E-01  4.471567151595E-01
H56  2.166230554166E-02 -3.613251634565E-01 -4.471567151595E-01
H57  3.344558072356E-01 -4.615460019514E-01  4.744238318719E-01
H58 -3.344558072356E-01  4.615460019514E-01 -4.744238318719E-01
H59 -3.984182346703E-01 -4.888097024792E-01  3.695665607744E-01
H60  3.984182346703E-01  4.888097024792E-01 -3.695665607744E-01
H61 -1.137995393217E-02  2.786546674061E-02  1.768528762482E-01
H62  1.137995393217E-02 -2.786546674061E-02 -1.768528762482E-01
H63 -2.952612363136E-01  3.758209441569E-01  2.326583046061E-01
H64  2.952612363136E-01 -3.758209441569E-01 -2.326583046061E-01
H65  9.040519449872E-02 -1.062391366510E-01  4.024633979288E-02
H66 -9.040519449872E-02  1.062391366510E-01 -4.024633979288E-02
H67 -1.926242438784E-01  2.409006446580E-01  9.619454718253E-02
H68  1.926242438784E-01 -2.409006446580E-01 -9.619454718253E-02
H69  4.153281306664E-01 -7.921454995360E-02  2.733605476402E-01
H70 -4.153281306664E-01  7.921454995360E-02 -2.733605476402E-01
H71  4.920765669236E-01  5.155752191497E-05  4.251855748430E-01
H72 -4.920765669236E-01 -5.155752191492E-05 -4.251855748430E-01
H73 -1.827660310543E-01 -8.751691665155E-02  4.937602077884E-01
H74  1.827660310543E-01  8.751691665155E-02 -4.937602077884E-01
H75  7.246190368975E-02 -2.429530000333E-01  4.084845630005E-01
H76 -7.246190368975E-02  2.429530000333E-01 -4.084845630005E-01
H77 -4.836940532102E-01 -2.175866800399E-01  1.367477790419E-01
H78  4.836940532102E-01  2.175866800399E-01 -1.367477790419E-01
H79  1.749019509704E-01 -3.784324765030E-01  2.723684059597E-01
H80 -1.749019509704E-01  3.784324765030E-01 -2.723684059597E-01
H81 -3.811561400771E-01 -3.526662827575E-01  3.390295981966E-04
H82  3.811561400771E-01  3.526662827575E-01 -3.390295981966E-04
H83  2.781248790168E-01  4.870819916670E-01  1.359963595653E-01
H84 -2.781248790168E-01 -4.870819916670E-01 -1.359963595653E-01


#===END

data_OPT_STEP_44

_symmetry_space_group_name_H-M 'P 1'
_cell_length_a      6.47647286
_cell_length_b      7.70889452
_cell_length_c     16.42703566
_cell_angle_alpha   98.303707
_cell_angle_beta   92.571923
_cell_angle_gamma   96.186921

loop_
_atom_site_label
_atom_site_fract_x
_atom_site_fract_y
_atom_site_fract_z
C1  4.409403875224E-02  2.361068974460E-01  3.264081930702E-01
C2 -4.409403875224E-02 -2.361068974460E-01 -3.264081930702E-01
C3  9.433364696014E-02  3.477342726849E-01  3.994137970099E-01
C4 -9.433364696014E-02 -3.477342726849E-01 -3.994137970099E-01
C5  2.974173264696E-01  4.483161376148E-01  4.151537968385E-01
C6 -2.974173264696E-01 -4.483161376148E-01 -4.151537968385E-01
C7  4.452992392254E-01  4.333254504894E-01  3.576296806025E-01
C8 -4.452992392254E-01 -4.333254504894E-01 -3.576296806025E-01
C9  4.001791600334E-01  3.171027668732E-01  2.799239740706E-01
C10 -4.001791600334E-01 -3.171027668732E-01 -2.799239740706E-01
C11  1.935665859307E-01  2.167354698960E-01  2.637373998427E-01
C12 -1.935665859307E-01 -2.167354698960E-01 -2.637373998427E-01
C13  1.457241363550E-01  1.041788898738E-01  1.889633983664E-01
C14 -1.457241363550E-01 -1.041788898738E-01 -1.889633983664E-01
C15  2.943010185164E-01  8.440407881232E-02  1.275725880819E-01
C16 -2.943010185164E-01 -8.440407881232E-02 -1.275725880819E-01
C17 -4.983700224736E-01  1.846528576215E-01  1.439031274925E-01
C18  4.983700224736E-01 -1.846528576215E-01 -1.439031274925E-01
C19 -4.525107741243E-01  2.996314935327E-01  2.203833096293E-01
C20  4.525107741243E-01 -2.996314935327E-01 -2.203833096293E-01
C21  2.475593751538E-01 -2.994492654305E-02  5.235495567295E-02
C22 -2.475593751538E-01  2.994492654305E-02 -5.235495567295E-02
C23  3.962289824257E-01 -5.018739574106E-02 -8.167255608370E-03
C24 -3.962289824257E-01  5.018739574106E-02  8.167255608370E-03
C25 -3.501559778557E-01  1.652896150435E-01  8.384249905708E-02
C26  3.501559778557E-01 -1.652896150435E-01 -8.384249905708E-02
C27 -4.410599016500E-01 -1.157462575934E-01  3.030534822622E-01
C28  4.410599016500E-01  1.157462575934E-01 -3.030534822622E-01
C29 -3.991392105399E-01 -7.353506115810E-02  3.869099833947E-01
C30  3.991392105399E-01  7.353506115810E-02 -3.869099833947E-01
C31 -2.131789532309E-01 -1.214839716856E-01  4.258597376313E-01
C32  2.131789532309E-01  1.214839716856E-01 -4.258597376313E-01
C33 -7.284259357601E-02 -2.077649902499E-01  3.793287450478E-01
C34  7.284259357601E-02  2.077649902499E-01 -3.793287450478E-01
C35 -1.093605133334E-01 -2.545536716775E-01  2.908585260933E-01
C36  1.093605133334E-01  2.545536716775E-01 -2.908585260933E-01
C37 -2.994677112802E-01 -2.083514196586E-01  2.517703969551E-01
C38  2.994677112802E-01  2.083514196586E-01 -2.517703969551E-01
C39 -3.388498975120E-01 -2.525227091796E-01  1.664113386011E-01
C40  3.388498975120E-01  2.525227091796E-01 -1.664113386011E-01
C41 -1.977546148890E-01 -3.428138905146E-01  1.161333871285E-01
C42  1.977546148890E-01  3.428138905146E-01 -1.161333871285E-01
C43 -7.029122709945E-03 -3.889280687252E-01  1.553426670530E-01
C44  7.029122709945E-03  3.889280687252E-01 -1.553426670530E-01
C45  3.074793115603E-02 -3.428075905056E-01  2.425251178775E-01
C46 -3.074793115603E-02  3.428075905056E-01 -2.425251178775E-01
C47 -2.364473198353E-01 -3.876988482477E-01  3.005739725804E-02
C48  2.364473198353E-01  3.876988482477E-01 -3.005739725804E-02
C49 -9.551087181485E-02 -4.769873639390E-01 -1.962353902133E-02
C50  9.551087181485E-02  4.769873639390E-01  1.962353902133E-02
C51  1.335080890971E-01 -4.778756324894E-01  1.062204330165E-01
C52 -1.335080890971E-01  4.778756324894E-01 -1.062204330165E-01
H53 -1.122596859831E-01  1.590834803903E-01  3.143805983856E-01
H54  1.122596859831E-01 -1.590834803903E-01 -3.143805983856E-01
H55 -2.155389934251E-02  3.611233341207E-01  4.471593604232E-01
H56  2.155389934251E-02 -3.611233341207E-01 -4.471593604232E-01
H57  3.343764804302E-01 -4.616456498346E-01  4.744916904638E-01
H58 -3.343764804302E-01  4.616456498346E-01 -4.744916904638E-01
H59 -3.985073954930E-01 -4.890342678067E-01  3.697154152548E-01
H60  3.985073954930E-01  4.890342678067E-01 -3.697154152548E-01
H61 -1.134390995300E-02  2.797454590170E-02  1.767116096606E-01
H62  1.134390995300E-02 -2.797454590170E-02 -1.767116096606E-01
H63 -2.956049244789E-01  3.761209501383E-01  2.326975967896E-01
H64  2.956049244789E-01 -3.761209501383E-01 -2.326975967896E-01
H65  9.050867471311E-02 -1.061924799739E-01  4.011251951392E-02
H66 -9.050867471311E-02  1.061924799739E-01 -4.011251951392E-02
H67 -1.931241620065E-01  2.415161514107E-01  9.616097167992E-02
H68  1.931241620065E-01 -2.415161514107E-01 -9.616097167992E-02
H69  4.156956466422E-01 -7.896390112581E-02  2.732885489683E-01
H70 -4.156956466422E-01  7.896390112581E-02 -2.732885489683E-01
H71  4.921250077584E-01  1.282152732449E-04  4.251349111636E-01
H72 -4.921250077584E-01 -1.282152732448E-04 -4.251349111636E-01
H73 -1.829557703801E-01 -8.755279917985E-02  4.937805086828E-01
H74  1.829557703801E-01  8.755279917985E-02 -4.937805086828E-01
H75  7.204130426760E-02 -2.432040635874E-01  4.085706529713E-01
H76 -7.204130426760E-02  2.432040635874E-01 -4.085706529713E-01
H77 -4.832941156403E-01 -2.173278516655E-01  1.366928218779E-01
H78  4.832941156403E-01  2.173278516655E-01 -1.366928218779E-01
H79  1.748134643047E-01 -3.782926310963E-01  2.723915627826E-01
H80 -1.748134643047E-01  3.782926310963E-01 -2.723915627826E-01
H81 -3.809745476731E-01 -3.527099890819E-01  3.150182735352E-04
H82  3.809745476731E-01  3.527099890819E-01 -3.150182735352E-04
H83  2.777951631972E-01  4.868870859434E-01  1.360318967486E-01
H84 -2.777951631972E-01 -4.868870859434E-01 -1.360318967486E-01


#===END

data_OPT_STEP_45

_symmetry_space_group_name_H-M 'P 1'
_cell_length_a      6.47285309
_cell_length_b      7.71363649
_cell_length_c     16.42730037
_cell_angle_alpha   98.303938
_cell_angle_beta   92.569496
_cell_angle_gamma   96.181082

loop_
_atom_site_label
_atom_site_fract_x
_atom_site_fract_y
_atom_site_fract_z
C1  4.405929297046E-02  2.361081605905E-01  3.264540088820E-01
C2 -4.405929297046E-02 -2.361081605905E-01 -3.264540088820E-01
C3  9.426708037343E-02  3.478592546609E-01  3.994073125923E-01
C4 -9.426708037343E-02 -3.478592546609E-01 -3.994073125923E-01
C5  2.974464954612E-01  4.484013964888E-01  4.151120206773E-01
C6 -2.974464954612E-01 -4.484013964888E-01 -4.151120206773E-01
C7  4.453657334899E-01  4.334059099114E-01  3.575679377055E-01
C8 -4.453657334899E-01 -4.334059099114E-01 -3.575679377055E-01
C9  4.002536153651E-01  3.170956858243E-01  2.799042891387E-01
C10 -4.002536153651E-01 -3.170956858243E-01 -2.799042891387E-01
C11  1.936034799683E-01  2.166670494953E-01  2.637802040614E-01
C12 -1.936034799683E-01 -2.166670494953E-01 -2.637802040614E-01
C13  1.457505378048E-01  1.040545306028E-01  1.890436239281E-01
C14 -1.457505378048E-01 -1.040545306028E-01 -1.890436239281E-01
C15  2.943759189914E-01  8.423689491171E-02  1.276403917967E-01
C16 -2.943759189914E-01 -8.423689491171E-02 -1.276403917967E-01
C17 -4.981972555817E-01  1.844389889054E-01  1.439314604869E-01
C18  4.981972555817E-01 -1.844389889054E-01 -1.439314604869E-01
C19 -4.523342125923E-01  2.994887118135E-01  2.203718793550E-01
C20  4.523342125923E-01 -2.994887118135E-01 -2.203718793550E-01
C21  2.475301056378E-01 -3.000316783196E-02  5.242084045714E-02
C22 -2.475301056378E-01  3.000316783196E-02 -5.242084045714E-02
C23  3.961538846417E-01 -5.011798270384E-02 -8.158767423701E-03
C24 -3.961538846417E-01  5.011798270384E-02  8.158767423701E-03
C25 -3.499438242867E-01  1.650493069976E-01  8.385226986874E-02
C26  3.499438242867E-01 -1.650493069976E-01 -8.385226986874E-02
C27 -4.411633074892E-01 -1.157972023515E-01  3.030719056606E-01
C28  4.411633074892E-01  1.157972023515E-01 -3.030719056606E-01
C29 -3.991855588706E-01 -7.359308934232E-02  3.869223799992E-01
C30  3.991855588706E-01  7.359308934232E-02 -3.869223799992E-01
C31 -2.131262812178E-01 -1.215236450394E-01  4.258566038524E-01
C32  2.131262812178E-01  1.215236450394E-01 -4.258566038524E-01
C33 -7.271543044171E-02 -2.077401983750E-01  3.793139959805E-01
C34  7.271543044171E-02  2.077401983750E-01 -3.793139959805E-01
C35 -1.093561857366E-01 -2.546188072254E-01  2.908564634479E-01
C36  1.093561857366E-01  2.546188072254E-01 -2.908564634479E-01
C37 -2.995906663738E-01 -2.084747412322E-01  2.517844440302E-01
C38  2.995906663738E-01  2.084747412322E-01 -2.517844440302E-01
C39 -3.390359140225E-01 -2.526628674697E-01  1.664320224856E-01
C40  3.390359140225E-01  2.526628674697E-01 -1.664320224856E-01
C41 -1.978209635130E-01 -3.428384246596E-01  1.161401043642E-01
C42  1.978209635130E-01  3.428384246596E-01 -1.161401043642E-01
C43 -6.945715311517E-03 -3.888687445069E-01  1.553336216710E-01
C44  6.945715311517E-03  3.888687445069E-01 -1.553336216710E-01
C45  3.078891006650E-02 -3.428744787249E-01  2.425192063562E-01
C46 -3.078891006650E-02  3.428744787249E-01 -2.425192063562E-01
C47 -2.365306738344E-01 -3.876857217858E-01  3.006571719236E-02
C48  2.365306738344E-01  3.876857217858E-01 -3.006571719236E-02
C49 -9.555346596937E-02 -4.769823876902E-01 -1.961933470713E-02
C50  9.555346596937E-02  4.769823876902E-01  1.961933470713E-02
C51  1.336421092485E-01 -4.778095341544E-01  1.062077581447E-01
C52 -1.336421092485E-01  4.778095341544E-01 -1.062077581447E-01
H53 -1.123206712734E-01  1.590325934963E-01  3.144728232360E-01
H54  1.123206712734E-01 -1.590325934963E-01 -3.144728232360E-01
H55 -2.164948992090E-02  3.612526807213E-01  4.471663282464E-01
H56  2.164948992090E-02 -3.612526807213E-01 -4.471663282464E-01
H57  3.344286033756E-01 -4.615692881243E-01  4.744367409971E-01
H58 -3.344286033756E-01  4.615692881243E-01 -4.744367409971E-01
H59 -3.983962015388E-01 -4.889410444833E-01  3.696171681890E-01
H60  3.983962015388E-01  4.889410444833E-01 -3.696171681890E-01
H61 -1.137826585147E-02  2.786631343994E-02  1.768258771052E-01
H62  1.137826585147E-02 -2.786631343994E-02 -1.768258771052E-01
H63 -2.953448866849E-01  3.759140435942E-01  2.326623031353E-01
H64  2.953448866849E-01 -3.759140435942E-01 -2.326623031353E-01
H65  9.040570778978E-02 -1.062104872936E-01  4.020977670559E-02
H66 -9.040570778978E-02  1.062104872936E-01 -4.020977670559E-02
H67 -1.927688518368E-01  2.411128238082E-01  9.617078728515E-02
H68  1.927688518368E-01 -2.411128238082E-01 -9.617078728515E-02
H69  4.154306174325E-01 -7.913528938012E-02  2.733300741502E-01
H70 -4.154306174325E-01  7.913528938012E-02 -2.733300741502E-01
H71  4.920432577510E-01  4.230795434789E-05  4.251623402142E-01
H72 -4.920432577510E-01 -4.230795434783E-05 -4.251623402142E-01
H73 -1.828415898727E-01 -8.755818740628E-02  4.937706207897E-01
H74  1.828415898727E-01  8.755818740628E-02 -4.937706207897E-01
H75  7.230727704766E-02 -2.430946643956E-01  4.085290691446E-01
H76 -7.230727704766E-02  2.430946643956E-01 -4.085290691446E-01
H77 -4.835960336905E-01 -2.175281168728E-01  1.367297105163E-01
H78  4.835960336905E-01  2.175281168728E-01 -1.367297105163E-01
H79  1.749094507813E-01 -3.783898234762E-01  2.723770788946E-01
H80 -1.749094507813E-01  3.783898234762E-01 -2.723770788946E-01
H81 -3.811312267246E-01 -3.526984856224E-01  3.331157747257E-04
H82  3.811312267246E-01  3.526984856224E-01 -3.331157747257E-04
H83  2.780209355916E-01  4.869791081016E-01  1.360090326993E-01
H84 -2.780209355916E-01 -4.869791081016E-01 -1.360090326993E-01


#===END

data_OPT_STEP_46

_symmetry_space_group_name_H-M 'P 1'
_cell_length_a      6.47344391
_cell_length_b      7.71315273
_cell_length_c     16.42718614
_cell_angle_alpha   98.311588
_cell_angle_beta   92.580780
_cell_angle_gamma   96.182683

loop_
_atom_site_label
_atom_site_fract_x
_atom_site_fract_y
_atom_site_fract_z
C1  4.404330733189E-02  2.360497711847E-01  3.264282456009E-01
C2 -4.404330733189E-02 -2.360497711847E-01 -3.264282456009E-01
C3  9.422562538251E-02  3.478269029640E-01  3.993911016126E-01
C4 -9.422562538251E-02 -3.478269029640E-01 -3.993911016126E-01
C5  2.973962777861E-01  4.483741299158E-01  4.151272976441E-01
C6 -2.973962777861E-01 -4.483741299158E-01 -4.151272976441E-01
C7  4.453230296427E-01  4.333748642686E-01  3.576012294047E-01
C8 -4.453230296427E-01 -4.333748642686E-01 -3.576012294047E-01
C9  4.002223105379E-01  3.170667681477E-01  2.799228418793E-01
C10 -4.002223105379E-01 -3.170667681477E-01 -2.799228418793E-01
C11  1.935926227294E-01  2.166124497797E-01  2.637705939934E-01
C12 -1.935926227294E-01 -2.166124497797E-01 -2.637705939934E-01
C13  1.457647248576E-01  1.039791962124E-01  1.890237155256E-01
C14 -1.457647248576E-01 -1.039791962124E-01 -1.890237155256E-01
C15  2.943927267171E-01  8.417175118110E-02  1.276358018850E-01
C16 -2.943927267171E-01 -8.417175118110E-02 -1.276358018850E-01
C17 -4.982047450061E-01  1.844061846527E-01  1.439541933404E-01
C18  4.982047450061E-01 -1.844061846527E-01 -1.439541933404E-01
C19 -4.523668294456E-01  2.994766524179E-01  2.204041766526E-01
C20  4.523668294456E-01 -2.994766524179E-01 -2.204041766526E-01
C21  2.475529513135E-01 -3.005374717064E-02  5.239755011140E-02
C22 -2.475529513135E-01  3.005374717064E-02 -5.239755011140E-02
C23  3.961655312007E-01 -5.013310378272E-02 -8.172822648984E-03
C24 -3.961655312007E-01  5.013310378272E-02  8.172822648984E-03
C25 -3.499666719687E-01  1.650592578536E-01  8.388253172590E-02
C26  3.499666719687E-01 -1.650592578536E-01 -8.388253172590E-02
C27 -4.411961713288E-01 -1.158576881030E-01  3.030624986618E-01
C28  4.411961713288E-01  1.158576881030E-01 -3.030624986618E-01
C29 -3.992249016834E-01 -7.364324358842E-02  3.869196986997E-01
C30  3.992249016834E-01  7.364324358842E-02 -3.869196986997E-01
C31 -2.131686936077E-01 -1.215464878011E-01  4.258666643238E-01
C32  2.131686936077E-01  1.215464878011E-01 -4.258666643238E-01
C33 -7.277958397270E-02 -2.077835050038E-01  3.793324854242E-01
C34  7.277958397270E-02  2.077835050038E-01 -3.793324854242E-01
C35 -1.094109943123E-01 -2.546690622758E-01  2.908680555336E-01
C36  1.094109943123E-01  2.546690622758E-01 -2.908680555336E-01
C37 -2.996277729189E-01 -2.085309008319E-01  2.517817181765E-01
C38  2.996277729189E-01  2.085309008319E-01 -2.517817181765E-01
C39 -3.390476454726E-01 -2.527009616227E-01  1.664207275426E-01
C40  3.390476454726E-01  2.527009616227E-01 -1.664207275426E-01
C41 -1.978297128808E-01 -3.428605945754E-01  1.161346065739E-01
C42  1.978297128808E-01  3.428605945754E-01 -1.161346065739E-01
C43 -6.971711361113E-03 -3.888831862684E-01  1.553423363798E-01
C44  6.971711361113E-03  3.888831862684E-01 -1.553423363798E-01
C45  3.073740093476E-02 -3.429073330111E-01  2.425362539262E-01
C46 -3.073740093476E-02  3.429073330111E-01 -2.425362539262E-01
C47 -2.365163342538E-01 -3.876933855554E-01  3.005211297005E-02
C48  2.365163342538E-01  3.876933855554E-01 -3.005211297005E-02
C49 -9.554429856109E-02 -4.769856819534E-01 -1.962640301439E-02
C50  9.554429856109E-02  4.769856819534E-01  1.962640301439E-02
C51  1.336253208871E-01 -4.777982206237E-01  1.062213935427E-01
C52 -1.336253208871E-01  4.777982206237E-01 -1.062213935427E-01
H53 -1.123169091947E-01  1.589466194360E-01  3.144295860841E-01
H54  1.123169091947E-01 -1.589466194360E-01 -3.144295860841E-01
H55 -2.168658444565E-02  3.612099921612E-01  4.471418977103E-01
H56  2.168658444565E-02 -3.612099921612E-01 -4.471418977103E-01
H57  3.343706051591E-01 -4.615908359918E-01  4.744616508502E-01
H58 -3.343706051591E-01  4.615908359918E-01 -4.744616508502E-01
H59 -3.984448020965E-01 -4.889693432422E-01  3.696732366710E-01
H60  3.984448020965E-01  4.889693432422E-01 -3.696732366710E-01
H61 -1.134722355405E-02  2.776964223851E-02  1.767865226269E-01
H62  1.134722355405E-02 -2.776964223851E-02 -1.767865226269E-01
H63 -2.953958880797E-01  3.759264910075E-01  2.327132912807E-01
H64  2.953958880797E-01 -3.759264910075E-01 -2.327132912807E-01
H65  9.043725522928E-02 -1.062674049426E-01  4.016332976501E-02
H66 -9.043725522928E-02  1.062674049426E-01 -4.016332976501E-02
H67 -1.928067046344E-01  2.411406229039E-01  9.622148258394E-02
H68  1.928067046344E-01 -2.411406229039E-01 -9.622148258394E-02
H69  4.153997327322E-01 -7.921778406100E-02  2.733107412884E-01
H70 -4.153997327322E-01  7.921778406100E-02 -2.733107412884E-01
H71  4.920136253322E-01 -4.355584384904E-06  4.251547735232E-01
H72 -4.920136253322E-01  4.355584384960E-06 -4.251547735232E-01
H73 -1.828754364924E-01 -8.755438505955E-02  4.937846799269E-01
H74  1.828754364924E-01  8.755438505955E-02 -4.937846799269E-01
H75  7.223582015955E-02 -2.431225838486E-01  4.085598904566E-01
H76 -7.223582015955E-02  2.431225838486E-01 -4.085598904566E-01
H77 -4.835951560133E-01 -2.175721056495E-01  1.367075064785E-01
H78  4.835951560133E-01  2.175721056495E-01 -1.367075064785E-01
H79  1.748459773391E-01 -3.784139065899E-01  2.724046385252E-01
H80 -1.748459773391E-01  3.784139065899E-01 -2.724046385252E-01
H81 -3.811093572869E-01 -3.527198967318E-01  3.092954493489E-04
H82  3.811093572869E-01  3.527198967318E-01 -3.092954493489E-04
H83  2.779974275757E-01  4.870067275450E-01  1.360325004666E-01
H84 -2.779974275757E-01 -4.870067275450E-01 -1.360325004666E-01


#===END

data_OPT_STEP_47

_symmetry_space_group_name_H-M 'P 1'
_cell_length_a      6.47472027
_cell_length_b      7.71218529
_cell_length_c     16.42553838
_cell_angle_alpha   98.307600
_cell_angle_beta   92.585232
_cell_angle_gamma   96.190363

loop_
_atom_site_label
_atom_site_fract_x
_atom_site_fract_y
_atom_site_fract_z
C1  4.401443545387E-02  2.360838734013E-01  3.264003436034E-01
C2 -4.401443545387E-02 -2.360838734013E-01 -3.264003436034E-01
C3  9.419034334236E-02  3.478448099290E-01  3.993786083962E-01
C4 -9.419034334236E-02 -3.478448099290E-01 -3.993786083962E-01
C5  2.973737019647E-01  4.483413382958E-01  4.151490882708E-01
C6 -2.973737019647E-01 -4.483413382958E-01 -4.151490882708E-01
C7  4.452863260142E-01  4.333633922268E-01  3.576275610230E-01
C8 -4.452863260142E-01 -4.333633922268E-01 -3.576275610230E-01
C9  4.001892673866E-01  3.170755010990E-01  2.799332884181E-01
C10 -4.001892673866E-01 -3.170755010990E-01 -2.799332884181E-01
C11  1.935718412059E-01  2.166277079077E-01  2.637571868861E-01
C12 -1.935718412059E-01 -2.166277079077E-01 -2.637571868861E-01
C13  1.457582887042E-01  1.039948433979E-01  1.889991658706E-01
C14 -1.457582887042E-01 -1.039948433979E-01 -1.889991658706E-01
C15  2.943902191855E-01  8.417481124808E-02  1.276246223755E-01
C16 -2.943902191855E-01 -8.417481124808E-02 -1.276246223755E-01
C17 -4.982398105520E-01  1.844418291555E-01  1.439569562780E-01
C18  4.982398105520E-01 -1.844418291555E-01 -1.439569562780E-01
C19 -4.524104749072E-01  2.995032203002E-01  2.204203553039E-01
C20  4.524104749072E-01 -2.995032203002E-01 -2.204203553039E-01
C21  2.475730933173E-01 -3.007120566290E-02  5.238059779728E-02
C22 -2.475730933173E-01  3.007120566290E-02 -5.238059779728E-02
C23  3.961764113079E-01 -5.014005406116E-02 -8.181992420887E-03
C24 -3.961764113079E-01  5.014005406116E-02  8.181992420887E-03
C25 -3.500083762195E-01  1.651014586159E-01  8.389374133166E-02
C26  3.500083762195E-01 -1.651014586159E-01 -8.389374133166E-02
C27 -4.411879127574E-01 -1.158423958046E-01  3.030431398733E-01
C28  4.411879127574E-01  1.158423958046E-01 -3.030431398733E-01
C29 -3.992644345008E-01 -7.364891881142E-02  3.869125585819E-01
C30  3.992644345008E-01  7.364891881142E-02 -3.869125585819E-01
C31 -2.132498348311E-01 -1.215310292818E-01  4.258775429161E-01
C32  2.132498348311E-01  1.215310292818E-01 -4.258775429161E-01
C33 -7.287841879756E-02 -2.077648893867E-01  3.793533341489E-01
C34  7.287841879756E-02  2.077648893867E-01 -3.793533341489E-01
C35 -1.094739908709E-01 -2.546509625682E-01  2.908792234464E-01
C36  1.094739908709E-01  2.546509625682E-01 -2.908792234464E-01
C37 -2.996376778735E-01 -2.085172663651E-01  2.517720423883E-01
C38  2.996376778735E-01  2.085172663651E-01 -2.517720423883E-01
C39 -3.390264193673E-01 -2.526935439965E-01  1.664006938283E-01
C40  3.390264193673E-01  2.526935439965E-01 -1.664006938283E-01
C41 -1.978152288713E-01 -3.428409094229E-01  1.161233045622E-01
C42  1.978152288713E-01  3.428409094229E-01 -1.161233045622E-01
C43 -6.988430865109E-03 -3.888279831204E-01  1.553510184904E-01
C44  6.988430865109E-03  3.888279831204E-01 -1.553510184904E-01
C45  3.068197295152E-02 -3.428517928568E-01  2.425554763701E-01
C46 -3.068197295152E-02  3.428517928568E-01 -2.425554763701E-01
C47 -2.364795554525E-01 -3.876969168022E-01  3.003092511837E-02
C48  2.364795554525E-01  3.876969168022E-01 -3.003092511837E-02
C49 -9.552905536971E-02 -4.770036638125E-01 -1.963669593820E-02
C50  9.552905536971E-02  4.770036638125E-01  1.963669593820E-02
C51  1.336070198848E-01 -4.777269971231E-01  1.062394662894E-01
C52 -1.336070198848E-01  4.777269971231E-01 -1.062394662894E-01
H53 -1.123316766690E-01  1.589827212368E-01  3.143829076003E-01
H54  1.123316766690E-01 -1.589827212368E-01 -3.143829076003E-01
H55 -2.170495901086E-02  3.612034004411E-01  4.471271768078E-01
H56  2.170495901086E-02 -3.612034004411E-01 -4.471271768078E-01
H57  3.343116736667E-01 -4.615848680361E-01  4.744839522551E-01
H58 -3.343116736667E-01  4.615848680361E-01 -4.744839522551E-01
H59 -3.985024521725E-01 -4.889701985328E-01  3.697152621511E-01
H60  3.985024521725E-01  4.889701985328E-01 -3.697152621511E-01
H61 -1.133731495267E-02  2.778138067294E-02  1.767438481309E-01
H62  1.133731495267E-02 -2.778138067294E-02 -1.767438481309E-01
H63 -2.954626656290E-01  3.759710800058E-01  2.327445824649E-01
H64  2.954626656290E-01 -3.759710800058E-01 -2.327445824649E-01
H65  9.047008593670E-02 -1.062801105554E-01  4.012652635866E-02
H66 -9.047008593670E-02  1.062801105554E-01 -4.012652635866E-02
H67 -1.928522781844E-01  2.411607763613E-01  9.625668315624E-02
H68  1.928522781844E-01 -2.411607763613E-01 -9.625668315624E-02
H69  4.154337734852E-01 -7.922577135880E-02  2.732758570821E-01
H70 -4.154337734852E-01  7.922577135880E-02 -2.732758570821E-01
H71  4.919952093008E-01 -1.098076475946E-05  4.251424745570E-01
H72 -4.919952093008E-01  1.098076475951E-05 -4.251424745570E-01
H73 -1.829869698100E-01 -8.754929095367E-02  4.938044433471E-01
H74  1.829869698100E-01  8.754929095367E-02 -4.938044433471E-01
H75  7.210488644378E-02 -2.430856978892E-01  4.086015600490E-01
H76 -7.210488644378E-02  2.430856978892E-01 -4.086015600490E-01
H77 -4.835345102648E-01 -2.175682177480E-01  1.366706363206E-01
H78  4.835345102648E-01  2.175682177480E-01 -1.366706363206E-01
H79  1.747571322105E-01 -3.783406316542E-01  2.724406108515E-01
H80 -1.747571322105E-01  3.783406316542E-01 -2.724406108515E-01
H81 -3.810476062636E-01 -3.527505454824E-01  2.726528054794E-04
H82  3.810476062636E-01  3.527505454824E-01 -2.726528054794E-04
H83  2.779293543698E-01  4.870721277175E-01  1.360684349437E-01
H84 -2.779293543698E-01 -4.870721277175E-01 -1.360684349437E-01


#===END

data_OPT_STEP_48

_symmetry_space_group_name_H-M 'P 1'
_cell_length_a      6.47697743
_cell_length_b      7.71038751
_cell_length_c     16.42318280
_cell_angle_alpha   98.309906
_cell_angle_beta   92.603560
_cell_angle_gamma   96.196490

loop_
_atom_site_label
_atom_site_fract_x
_atom_site_fract_y
_atom_site_fract_z
C1  4.409105385575E-02  2.359845626501E-01  3.263796101551E-01
C2 -4.409105385575E-02 -2.359845626501E-01 -3.263796101551E-01
C3  9.419713806546E-02  3.478305462025E-01  3.993676836442E-01
C4 -9.419713806546E-02 -3.478305462025E-01 -3.993676836442E-01
C5  2.973040689147E-01  4.484017584028E-01  4.151778986925E-01
C6 -2.973040689147E-01 -4.484017584028E-01 -4.151778986925E-01
C7  4.451997507623E-01  4.334269556770E-01  3.576789280614E-01
C8 -4.451997507623E-01 -4.334269556770E-01 -3.576789280614E-01
C9  4.001491645140E-01  3.170940597173E-01  2.799660269168E-01
C10 -4.001491645140E-01 -3.170940597173E-01 -2.799660269168E-01
C11  1.936164258018E-01  2.165620449183E-01  2.637535155674E-01
C12 -1.936164258018E-01 -2.165620449183E-01 -2.637535155674E-01
C13  1.458407602088E-01  1.039011258753E-01  1.889737831165E-01
C14 -1.458407602088E-01 -1.039011258753E-01 -1.889737831165E-01
C15  2.944363887286E-01  8.411859069366E-02  1.276146454726E-01
C16 -2.944363887286E-01 -8.411859069366E-02 -1.276146454726E-01
C17 -4.982408352970E-01  1.844064739748E-01  1.439977028794E-01
C18  4.982408352970E-01 -1.844064739748E-01 -1.439977028794E-01
C19 -4.524532139078E-01  2.995047369097E-01  2.204809737822E-01
C20  4.524532139078E-01 -2.995047369097E-01 -2.204809737822E-01
C21  2.476368411517E-01 -3.012498362050E-02  5.234193233961E-02
C22 -2.476368411517E-01  3.012498362050E-02 -5.234193233961E-02
C23  3.961985591790E-01 -5.014792940149E-02 -8.207810720161E-03
C24 -3.961985591790E-01  5.014792940149E-02  8.207810720161E-03
C25 -3.500387982160E-01  1.650911734203E-01  8.395199537015E-02
C26  3.500387982160E-01 -1.650911734203E-01 -8.395199537015E-02
C27 -4.412257656764E-01 -1.158711060548E-01  3.030100280658E-01
C28  4.412257656764E-01  1.158711060548E-01 -3.030100280658E-01
C29 -3.993309254752E-01 -7.364457294201E-02  3.868987371436E-01
C30  3.993309254752E-01  7.364457294201E-02 -3.868987371436E-01
C31 -2.133912957067E-01 -1.215076410285E-01  4.259005151104E-01
C32  2.133912957067E-01  1.215076410285E-01 -4.259005151104E-01
C33 -7.305728475130E-02 -2.077493003854E-01  3.793955224611E-01
C34  7.305728475130E-02  2.077493003854E-01 -3.793955224611E-01
C35 -1.096073721564E-01 -2.546539363380E-01  2.909032394680E-01
C36  1.096073721564E-01  2.546539363380E-01 -2.909032394680E-01
C37 -2.997110828173E-01 -2.085599659434E-01  2.517572089027E-01
C38  2.997110828173E-01  2.085599659434E-01 -2.517572089027E-01
C39 -3.390776723003E-01 -2.527890681755E-01  1.663679342768E-01
C40  3.390776723003E-01  2.527890681755E-01 -1.663679342768E-01
C41 -1.978439897797E-01 -3.428731882664E-01  1.161053692871E-01
C42  1.978439897797E-01  3.428731882664E-01 -1.161053692871E-01
C43 -7.071152055991E-03 -3.888132513467E-01  1.553737628706E-01
C44  7.071152055991E-03  3.888132513467E-01 -1.553737628706E-01
C45  3.052346173376E-02 -3.428554548770E-01  2.426003744294E-01
C46 -3.052346173376E-02  3.428554548770E-01 -2.426003744294E-01
C47 -2.364419339085E-01 -3.877264473577E-01  2.999042398038E-02
C48  2.364419339085E-01  3.877264473577E-01 -2.999042398038E-02
C49 -9.549666767685E-02 -4.770189709788E-01 -1.965797498356E-02
C50  9.549666767685E-02  4.770189709788E-01  1.965797498356E-02
C51  1.335358818763E-01 -4.776722208116E-01  1.062803124504E-01
C52 -1.335358818763E-01  4.776722208116E-01 -1.062803124504E-01
H53 -1.121907832070E-01  1.588212181725E-01  3.143335212413E-01
H54  1.121907832070E-01 -1.588212181725E-01 -3.143335212413E-01
H55 -2.168264221949E-02  3.611754941590E-01  4.471004463574E-01
H56  2.168264221949E-02 -3.611754941590E-01 -4.471004463574E-01
H57  3.341951076671E-01 -4.614797288389E-01  4.745264263390E-01
H58 -3.341951076671E-01  4.614797288389E-01 -4.745264263390E-01
H59 -3.986375959159E-01 -4.888705714754E-01  3.698010087017E-01
H60  3.986375959159E-01  4.888705714754E-01 -3.698010087017E-01
H61 -1.119969132918E-02  2.764256206639E-02  1.766858284586E-01
H62  1.119969132918E-02 -2.764256206639E-02 -1.766858284586E-01
H63 -2.955520819314E-01  3.760040184262E-01  2.328422179896E-01
H64  2.955520819314E-01 -3.760040184262E-01 -2.328422179896E-01
H65  9.058242911688E-02 -1.063670939944E-01  4.005277957085E-02
H66 -9.058242911688E-02  1.063670939944E-01 -4.005277957085E-02
H67 -1.929158093459E-01  2.411541763664E-01  9.635762935726E-02
H68  1.929158093459E-01 -2.411541763664E-01 -9.635762935726E-02
H69  4.154197739880E-01 -7.931488268866E-02  2.732149179187E-01
H70 -4.154197739880E-01  7.931488268866E-02 -2.732149179187E-01
H71  4.919645096617E-01 -6.146074805158E-06  4.251203258848E-01
H72 -4.919645096617E-01  6.146074805242E-06 -4.251203258848E-01
H73 -1.831442869433E-01 -8.749683877751E-02  4.938425961464E-01
H74  1.831442869433E-01  8.749683877751E-02 -4.938425961464E-01
H75  7.185892472917E-02 -2.430658553498E-01  4.086833339649E-01
H76 -7.185892472917E-02  2.430658553498E-01 -4.086833339649E-01
H77 -4.835551844395E-01 -2.177182377702E-01  1.366083127075E-01
H78  4.835551844395E-01  2.177182377702E-01 -1.366083127075E-01
H79  1.745425832748E-01 -3.783208875878E-01  2.725186155706E-01
H80 -1.745425832748E-01  3.783208875878E-01 -2.725186155706E-01
H81 -3.809574211830E-01 -3.528050749945E-01  1.994615025283E-04
H82  3.809574211830E-01  3.528050749945E-01 -1.994615025283E-04
H83  2.778199952195E-01  4.871768392182E-01  1.361405626216E-01
H84 -2.778199952195E-01 -4.871768392182E-01 -1.361405626216E-01


#===END

data_OPT_STEP_49

_symmetry_space_group_name_H-M 'P 1'
_cell_length_a      6.48223803
_cell_length_b      7.70650544
_cell_length_c     16.41831936
_cell_angle_alpha   98.312704
_cell_angle_beta   92.632082
_cell_angle_gamma   96.216333

loop_
_atom_site_label
_atom_site_fract_x
_atom_site_fract_y
_atom_site_fract_z
C1  4.416026619873E-02  2.360568499023E-01  3.262995712809E-01
C2 -4.416026619873E-02 -2.360568499023E-01 -3.262995712809E-01
C3  9.421116308571E-02  3.479418961016E-01  3.993352945592E-01
C4 -9.421116308571E-02 -3.479418961016E-01 -3.993352945592E-01
C5  2.971917523145E-01  4.485872402878E-01  4.152301022005E-01
C6 -2.971917523145E-01 -4.485872402878E-01 -4.152301022005E-01
C7  4.450311174162E-01  4.336167143091E-01  3.577681189211E-01
C8 -4.450311174162E-01 -4.336167143091E-01 -3.577681189211E-01
C9  4.000449678999E-01  3.172260395066E-01  2.800138570490E-01
C10 -4.000449678999E-01 -3.172260395066E-01 -2.800138570490E-01
C11  1.936304551039E-01  2.166413170797E-01  2.637115095404E-01
C12 -1.936304551039E-01 -2.166413170797E-01 -2.637115095404E-01
C13  1.459151601254E-01  1.039406971763E-01  1.888845630607E-01
C14 -1.459151601254E-01 -1.039406971763E-01 -1.888845630607E-01
C15  2.944704568667E-01  8.414676810218E-02  1.275698187923E-01
C16 -2.944704568667E-01 -8.414676810218E-02 -1.275698187923E-01
C17 -4.983483980740E-01  1.845316705917E-01  1.440329390066E-01
C18  4.983483980740E-01 -1.845316705917E-01 -1.440329390066E-01
C19 -4.526266056716E-01  2.996792700392E-01  2.205594379134E-01
C20  4.526266056716E-01 -2.996792700392E-01 -2.205594379134E-01
C21  2.477474000278E-01 -3.016376473699E-02  5.225706458104E-02
C22 -2.477474000278E-01  3.016376473699E-02 -5.225706458104E-02
C23  3.962761418116E-01 -5.020863385915E-02 -8.244721270639E-03
C24 -3.962761418116E-01  5.020863385915E-02  8.244721270639E-03
C25 -3.502059825108E-01  1.652452816422E-01  8.402171617233E-02
C26  3.502059825108E-01 -1.652452816422E-01 -8.402171617233E-02
C27 -4.410458822038E-01 -1.157649693904E-01  3.029562369565E-01
C28  4.410458822038E-01  1.157649693904E-01 -3.029562369565E-01
C29 -3.992177604388E-01 -7.347983204847E-02  3.868817557484E-01
C30  3.992177604388E-01  7.347983204847E-02 -3.868817557484E-01
C31 -2.134743073864E-01 -1.213481531639E-01  4.259543518221E-01
C32  2.134743073864E-01  1.213481531639E-01 -4.259543518221E-01
C33 -7.326578846330E-02 -2.076496724111E-01  3.794826523910E-01
C34  7.326578846330E-02  2.076496724111E-01 -3.794826523910E-01
C35 -1.097206143672E-01 -2.545703785112E-01  2.909531329834E-01
C36  1.097206143672E-01  2.545703785112E-01 -2.909531329834E-01
C37 -2.996327859592E-01 -2.084866684781E-01  2.517344245790E-01
C38  2.996327859592E-01  2.084866684781E-01 -2.517344245790E-01
C39 -3.388666254457E-01 -2.526834118061E-01  1.663021929372E-01
C40  3.388666254457E-01  2.526834118061E-01 -1.663021929372E-01
C41 -1.977383816612E-01 -3.428087695220E-01  1.160729135146E-01
C42  1.977383816612E-01  3.428087695220E-01 -1.160729135146E-01
C43 -7.088126559017E-03 -3.886374956509E-01  1.554091982691E-01
C44  7.088126559017E-03  3.886374956509E-01 -1.554091982691E-01
C45  3.037787269016E-02 -3.427062837296E-01  2.426769762634E-01
C46 -3.037787269016E-02  3.427062837296E-01 -2.426769762634E-01
C47 -2.362947252374E-01 -3.877660603605E-01  2.992417535715E-02
C48  2.362947252374E-01  3.877660603605E-01 -2.992417535715E-02
C49 -9.544871786207E-02 -4.770936312495E-01 -1.969110659591E-02
C50  9.544871786207E-02  4.770936312495E-01  1.969110659591E-02
C51  1.334528201318E-01 -4.774852730878E-01  1.063463208777E-01
C52 -1.334528201318E-01  4.774852730878E-01 -1.063463208777E-01
H53 -1.120445222588E-01  1.588756835084E-01  3.141839587993E-01
H54  1.120445222588E-01 -1.588756835084E-01 -3.141839587993E-01
H55 -2.161284208665E-02  3.612488288839E-01  4.470455643103E-01
H56  2.161284208665E-02 -3.612488288839E-01 -4.470455643103E-01
H57  3.340434333087E-01 -4.612792142776E-01  4.746182912696E-01
H58 -3.340434333087E-01  4.612792142776E-01 -4.746182912696E-01
H59 -3.989266922591E-01 -4.885811740103E-01  3.699404541301E-01
H60  3.989266922591E-01  4.885811740103E-01 -3.699404541301E-01
H61 -1.106455152812E-02  2.769654712981E-02  1.765159280130E-01
H62  1.106455152812E-02 -2.769654712981E-02 -1.765159280130E-01
H63 -2.958320338832E-01  3.762545983911E-01  2.329806789650E-01
H64  2.958320338832E-01 -3.762545983911E-01 -2.329806789650E-01
H65  9.078399482840E-02 -1.064471506487E-01  3.989946890581E-02
H66 -9.078399482840E-02  1.064471506487E-01 -3.989946890581E-02
H67 -1.932254883193E-01  2.414436028338E-01  9.647236616338E-02
H68  1.932254883193E-01 -2.414436028338E-01 -9.647236616338E-02
H69  4.157270416422E-01 -7.923504805835E-02  2.731077734740E-01
H70 -4.157270416422E-01  7.923504805835E-02 -2.731077734740E-01
H71  4.921418043904E-01  1.583146592598E-04  4.250823827185E-01
H72 -4.921418043904E-01 -1.583146592598E-04 -4.250823827185E-01
H73 -1.832681621059E-01 -8.729716546998E-02  4.939241313872E-01
H74  1.832681621059E-01  8.729716546998E-02 -4.939241313872E-01
H75  7.151819368486E-02 -2.429510354340E-01  4.088288941396E-01
H76 -7.151819368486E-02  2.429510354340E-01 -4.088288941396E-01
H77 -4.831837336015E-01 -2.175943284852E-01  1.364848511941E-01
H78  4.831837336015E-01  2.175943284852E-01 -1.364848511941E-01
H79  1.743087710875E-01 -3.780815852036E-01  2.726465290581E-01
H80 -1.743087710875E-01  3.780815852036E-01 -2.726465290581E-01
H81 -3.806984909035E-01 -3.529004786541E-01  8.026833402953E-05
H82  3.806984909035E-01  3.529004786541E-01 -8.026833402953E-05
H83  2.776868479761E-01  4.875105023536E-01  1.362536846614E-01
H84 -2.776868479761E-01 -4.875105023536E-01 -1.362536846614E-01


#===END

data_OPT_STEP_50

_symmetry_space_group_name_H-M 'P 1'
_cell_length_a      6.48312989
_cell_length_b      7.71048912
_cell_length_c     16.41076472
_cell_angle_alpha   98.315247
_cell_angle_beta   92.660212
_cell_angle_gamma   96.240282

loop_
_atom_site_label
_atom_site_fract_x
_atom_site_fract_y
_atom_site_fract_z
C1  4.388909321013E-02  2.360838692291E-01  3.262423368436E-01
C2 -4.388909321013E-02 -2.360838692291E-01 -3.262423368436E-01
C3  9.387539103753E-02  3.480071286789E-01  3.993088601751E-01
C4 -9.387539103753E-02 -3.480071286789E-01 -3.993088601751E-01
C5  2.968659775939E-01  4.486502484308E-01  4.152741690889E-01
C6 -2.968659775939E-01 -4.486502484308E-01 -4.152741690889E-01
C7  4.447489100702E-01  4.336771521966E-01  3.578412542917E-01
C8 -4.447489100702E-01 -4.336771521966E-01 -3.578412542917E-01
C9  3.997956960331E-01  3.173074803065E-01  2.800447907426E-01
C10 -3.997956960331E-01 -3.173074803065E-01 -2.800447907426E-01
C11  1.934151071976E-01  2.166575719702E-01  2.636865777922E-01
C12 -1.934151071976E-01 -2.166575719702E-01 -2.636865777922E-01
C13  1.458237828678E-01  1.038121159740E-01  1.888540696525E-01
C14 -1.458237828678E-01 -1.038121159740E-01 -1.888540696525E-01
C15  2.944362968283E-01  8.401183345977E-02  1.275729610099E-01
C16 -2.944362968283E-01 -8.401183345977E-02 -1.275729610099E-01
C17 -4.984381972400E-01  1.845024390946E-01  1.440834385387E-01
C18  4.984381972400E-01 -1.845024390946E-01 -1.440834385387E-01
C19 -4.528323574025E-01  2.997709666602E-01  2.206191523399E-01
C20  4.528323574025E-01 -2.997709666602E-01 -2.206191523399E-01
C21  2.477719862106E-01 -3.031255590169E-02  5.222428489838E-02
C22 -2.477719862106E-01  3.031255590169E-02 -5.222428489838E-02
C23  3.962771070784E-01 -5.021343343483E-02 -8.280931629091E-03
C24 -3.962771070784E-01  5.021343343483E-02  8.280931629091E-03
C25 -3.502517512142E-01  1.652338769474E-01  8.410092387749E-02
C26  3.502517512142E-01 -1.652338769474E-01 -8.410092387749E-02
C27 -4.410323605082E-01 -1.157325736027E-01  3.028761906305E-01
C28  4.410323605082E-01  1.157325736027E-01 -3.028761906305E-01
C29 -3.993670725889E-01 -7.350616386161E-02  3.868588891790E-01
C30  3.993670725889E-01  7.350616386161E-02 -3.868588891790E-01
C31 -2.137476684661E-01 -1.213569896262E-01  4.260320508222E-01
C32  2.137476684661E-01  1.213569896262E-01 -4.260320508222E-01
C33 -7.350445594723E-02 -2.075857867883E-01  3.796020952226E-01
C34  7.350445594723E-02  2.075857867883E-01 -3.796020952226E-01
C35 -1.098182590575E-01 -2.544801672505E-01  2.910181271741E-01
C36  1.098182590575E-01  2.544801672505E-01 -2.910181271741E-01
C37 -2.996890576894E-01 -2.085295673572E-01  2.517079119582E-01
C38  2.996890576894E-01  2.085295673572E-01 -2.517079119582E-01
C39 -3.389257634183E-01 -2.528674433556E-01  1.662345555541E-01
C40  3.389257634183E-01  2.528674433556E-01 -1.662345555541E-01
C41 -1.977588822977E-01 -3.428867245395E-01  1.160407390729E-01
C42  1.977588822977E-01  3.428867245395E-01 -1.160407390729E-01
C43 -7.158197845717E-03 -3.885890175129E-01  1.554658337155E-01
C44  7.158197845717E-03  3.885890175129E-01 -1.554658337155E-01
C45  3.029922665604E-02 -3.425418235286E-01  2.427773833315E-01
C46 -3.029922665604E-02  3.425418235286E-01 -2.427773833315E-01
C47 -2.362385204004E-01 -3.878509280717E-01  2.984230416406E-02
C48  2.362385204004E-01  3.878509280717E-01 -2.984230416406E-02
C49 -9.535994461997E-02 -4.770666498102E-01 -1.974087150133E-02
C50  9.535994461997E-02  4.770666498102E-01  1.974087150133E-02
C51  1.332935603698E-01 -4.775004715861E-01  1.064456916465E-01
C52 -1.332935603698E-01  4.775004715861E-01 -1.064456916465E-01
H53 -1.122909484816E-01  1.588490853125E-01  3.140763886760E-01
H54  1.122909484816E-01 -1.588490853125E-01 -3.140763886760E-01
H55 -2.195287289766E-02  3.612275403357E-01  4.470128546390E-01
H56  2.195287289766E-02 -3.612275403357E-01 -4.470128546390E-01
H57  3.336747938726E-01 -4.612102282545E-01  4.746966199870E-01
H58 -3.336747938726E-01  4.612102282545E-01 -4.746966199870E-01
H59 -3.991935008230E-01 -4.885368506842E-01  3.700769130753E-01
H60  3.991935008230E-01  4.885368506842E-01 -3.700769130753E-01
H61 -1.110147303464E-02  2.746141610857E-02  1.764452729890E-01
H62  1.110147303464E-02 -2.746141610857E-02 -1.764452729890E-01
H63 -2.960496401708E-01  3.763789167712E-01  2.330975723401E-01
H64  2.960496401708E-01 -3.763789167712E-01 -2.330975723401E-01
H65  9.083628726316E-02 -1.066470198327E-01  3.981352364913E-02
H66 -9.083628726316E-02  1.066470198327E-01 -3.981352364913E-02
H67 -1.932685132195E-01  2.414264748116E-01  9.661979070059E-02
H68  1.932685132195E-01 -2.414264748116E-01 -9.661979070059E-02
H69  4.157834792863E-01 -7.930154228542E-02  2.729517180790E-01
H70 -4.157834792863E-01  7.930154228542E-02 -2.729517180790E-01
H71  4.920194663706E-01  1.597962260040E-04  4.250129383985E-01
H72 -4.920194663706E-01 -1.597962260039E-04 -4.250129383985E-01
H73 -1.835878905406E-01 -8.727613456929E-02  4.940430791059E-01
H74  1.835878905406E-01  8.727613456929E-02 -4.940430791059E-01
H75  7.116057900949E-02 -2.428799060940E-01  4.090549240846E-01
H76 -7.116057900949E-02  2.428799060940E-01 -4.090549240846E-01
H77 -4.832731281384E-01 -2.179714542743E-01  1.363535673191E-01
H78  4.832731281384E-01  2.179714542743E-01 -1.363535673191E-01
H79  1.742168081141E-01 -3.777778692039E-01  2.728146572175E-01
H80 -1.742168081141E-01  3.777778692039E-01 -2.728146572175E-01
H81 -3.806456771429E-01 -3.531377799850E-01 -6.498253043576E-05
H82  3.806456771429E-01  3.531377799850E-01  6.498253043576E-05
H83  2.774532979234E-01  4.875424628831E-01  1.364231154395E-01
H84 -2.774532979234E-01 -4.875424628831E-01 -1.364231154395E-01


#===END

data_OPT_STEP_51

_symmetry_space_group_name_H-M 'P 1'
_cell_length_a      6.48245616
_cell_length_b      7.70713459
_cell_length_c     16.41655252
_cell_angle_alpha   98.315571
_cell_angle_beta   92.635990
_cell_angle_gamma   96.221098

loop_
_atom_site_label
_atom_site_fract_x
_atom_site_fract_y
_atom_site_fract_z
C1  4.406874455542E-02  2.360650270212E-01  3.262941563540E-01
C2 -4.406874455542E-02 -2.360650270212E-01 -3.262941563540E-01
C3  9.409898471957E-02  3.479547619007E-01  3.993404328528E-01
C4 -9.409898471957E-02 -3.479547619007E-01 -3.993404328528E-01
C5  2.970865883193E-01  4.485904995115E-01  4.152559453496E-01
C6 -2.970865883193E-01 -4.485904995115E-01 -4.152559453496E-01
C7  4.449393046386E-01  4.336208994745E-01  3.577994405870E-01
C8 -4.449393046386E-01 -4.336208994745E-01 -3.577994405870E-01
C9  3.999638739043E-01  3.172431704988E-01  2.800312099907E-01
C10 -3.999638739043E-01 -3.172431704988E-01 -2.800312099907E-01
C11  1.935615134076E-01  2.166403737415E-01  2.637145508858E-01
C12 -1.935615134076E-01 -2.166403737415E-01 -2.637145508858E-01
C13  1.458934969160E-01  1.038842798060E-01  1.888883235554E-01
C14 -1.458934969160E-01 -1.038842798060E-01 -1.888883235554E-01
C15  2.944656225767E-01  8.409202427475E-02  1.275798072884E-01
C16 -2.944656225767E-01 -8.409202427475E-02 -1.275798072884E-01
C17 -4.983773154647E-01  1.845167339836E-01  1.440524208058E-01
C18  4.983773154647E-01 -1.845167339836E-01 -1.440524208058E-01
C19 -4.526940096097E-01  2.997007343673E-01  2.205823163871E-01
C20  4.526940096097E-01 -2.997007343673E-01 -2.205823163871E-01
C21  2.477612862246E-01 -3.021908969278E-02  5.225464238304E-02
C22 -2.477612862246E-01  3.021908969278E-02 -5.225464238304E-02
C23  3.962719793277E-01 -5.019976839836E-02 -8.256977929022E-03
C24 -3.962719793277E-01  5.019976839836E-02  8.256977929022E-03
C25 -3.502118588473E-01  1.652191992790E-01  8.405060656039E-02
C26  3.502118588473E-01 -1.652191992790E-01 -8.405060656039E-02
C27 -4.410454883393E-01 -1.157453567171E-01  3.029450192191E-01
C28  4.410454883393E-01  1.157453567171E-01 -3.029450192191E-01
C29 -3.992661681790E-01 -7.346692270457E-02  3.868836203854E-01
C30  3.992661681790E-01  7.346692270457E-02 -3.868836203854E-01
C31 -2.135672718774E-01 -1.213491024340E-01  4.259800571768E-01
C32  2.135672718774E-01  1.213491024340E-01 -4.259800571768E-01
C33 -7.333815119251E-02 -2.076326999139E-01  3.795169997261E-01
C34  7.333815119251E-02  2.076326999139E-01 -3.795169997261E-01
C35 -1.097444547422E-01 -2.545468049527E-01  2.909735570179E-01
C36  1.097444547422E-01  2.545468049527E-01 -2.909735570179E-01
C37 -2.996540895559E-01 -2.085061719571E-01  2.517369483978E-01
C38  2.996540895559E-01  2.085061719571E-01 -2.517369483978E-01
C39 -3.389081124557E-01 -2.527707817230E-01  1.662980405579E-01
C40  3.389081124557E-01  2.527707817230E-01 -1.662980405579E-01
C41 -1.977517483139E-01 -3.428465324318E-01  1.160727236749E-01
C42  1.977517483139E-01  3.428465324318E-01 -1.160727236749E-01
C43 -7.117845904189E-03 -3.886505593990E-01  1.554253732071E-01
C44  7.117845904189E-03  3.886505593990E-01 -1.554253732071E-01
C45  3.035970828526E-02 -3.426707081573E-01  2.427021133644E-01
C46 -3.035970828526E-02  3.426707081573E-01 -2.427021133644E-01
C47 -2.362777953336E-01 -3.877846486125E-01  2.991183571069E-02
C48  2.362777953336E-01  3.877846486125E-01 -2.991183571069E-02
C49 -9.541185324392E-02 -4.770653261902E-01 -1.970137442677E-02
C50  9.541185324392E-02  4.770653261902E-01  1.970137442677E-02
C51  1.333875870188E-01 -4.775325317883E-01  1.063689590556E-01
C52 -1.333875870188E-01  4.775325317883E-01 -1.063689590556E-01
H53 -1.121240505812E-01  1.588618397771E-01  3.141647638699E-01
H54  1.121240505812E-01 -1.588618397771E-01 -3.141647638699E-01
H55 -2.174154859534E-02  3.612546733946E-01  4.470448198410E-01
H56  2.174154859534E-02 -3.612546733946E-01 -4.470448198410E-01
H57  3.338957398710E-01 -4.612355820421E-01  4.746469192429E-01
H58 -3.338957398710E-01  4.612355820421E-01 -4.746469192429E-01
H59 -3.990131021803E-01 -4.885851427163E-01  3.699909476451E-01
H60  3.990131021803E-01  4.885851427163E-01 -3.699909476451E-01
H61 -1.105803122562E-02  2.758950586160E-02  1.765121426743E-01
H62  1.105803122562E-02 -2.758950586160E-02 -1.765121426743E-01
H63 -2.958953911591E-01  3.762700508363E-01  2.330247613335E-01
H64  2.958953911591E-01 -3.762700508363E-01 -2.330247613335E-01
H65  9.080658519006E-02 -1.065152610372E-01  3.988055049971E-02
H66 -9.080658519006E-02  1.065152610372E-01 -3.988055049971E-02
H67 -1.932140069086E-01  2.413824648208E-01  9.653010709003E-02
H68  1.932140069086E-01 -2.413824648208E-01 -9.653010709003E-02
H69  4.157437561017E-01 -7.923967177509E-02  2.730764281407E-01
H70 -4.157437561017E-01  7.923967177509E-02 -2.730764281407E-01
H71  4.921128151289E-01  2.106677288834E-04  4.250679772896E-01
H72 -4.921128151289E-01 -2.106677288834E-04 -4.250679772896E-01
H73 -1.833825193059E-01 -8.729673582223E-02  4.939617570657E-01
H74  1.833825193059E-01  8.729673582223E-02 -4.939617570657E-01
H75  7.138382180976E-02 -2.429653464385E-01  4.088989176806E-01
H76 -7.138382180976E-02  2.429653464385E-01 -4.088989176806E-01
H77 -4.832532514950E-01 -2.177639609369E-01  1.364680363890E-01
H78  4.832532514950E-01  2.177639609369E-01 -1.364680363890E-01
H79  1.742892037572E-01 -3.780059926369E-01  2.726871471477E-01
H80 -1.742892037572E-01  3.780059926369E-01 -2.726871471477E-01
H81 -3.806943526898E-01 -3.529758404507E-01  5.546682613505E-05
H82  3.806943526898E-01  3.529758404507E-01 -5.546682613505E-05
H83  2.775926550962E-01  4.874611393733E-01  1.362925523711E-01
H84 -2.775926550962E-01 -4.874611393733E-01 -1.362925523711E-01


#===END

data_OPT_STEP_52

_symmetry_space_group_name_H-M 'P 1'
_cell_length_a      6.48291898
_cell_length_b      7.70608651
_cell_length_c     16.41623595
_cell_angle_alpha   98.316532
_cell_angle_beta   92.635320
_cell_angle_gamma   96.217957

loop_
_atom_site_label
_atom_site_fract_x
_atom_site_fract_y
_atom_site_fract_z
C1  4.407932733933E-02  2.359396476749E-01  3.263177373040E-01
C2 -4.407932733933E-02 -2.359396476749E-01 -3.263177373040E-01
C3  9.406940325576E-02  3.478641363947E-01  3.993624182318E-01
C4 -9.406940325576E-02 -3.478641363947E-01 -3.993624182318E-01
C5  2.970322213289E-01  4.485166040066E-01  4.152855365788E-01
C6 -2.970322213289E-01 -4.485166040066E-01 -4.152855365788E-01
C7  4.448626261670E-01  4.335932676127E-01  3.578227878821E-01
C8 -4.448626261670E-01 -4.335932676127E-01 -3.578227878821E-01
C9  3.999279120711E-01  3.171826843260E-01  2.800564176817E-01
C10 -3.999279120711E-01 -3.171826843260E-01 -2.800564176817E-01
C11  1.935748434789E-01  2.165236442839E-01  2.637409426632E-01
C12 -1.935748434789E-01 -2.165236442839E-01 -2.637409426632E-01
C13  1.459010097534E-01  1.038170555144E-01  1.888960389599E-01
C14 -1.459010097534E-01 -1.038170555144E-01 -1.888960389599E-01
C15  2.944574616080E-01  8.406769631863E-02  1.275815747820E-01
C16 -2.944574616080E-01 -8.406769631863E-02 -1.275815747820E-01
C17 -4.983995445855E-01  1.844857465705E-01  1.440691798656E-01
C18  4.983995445855E-01 -1.844857465705E-01 -1.440691798656E-01
C19 -4.527279829556E-01  2.996500856142E-01  2.206106885707E-01
C20  4.527279829556E-01 -2.996500856142E-01 -2.206106885707E-01
C21  2.477670506072E-01 -3.022818849770E-02  5.224485359765E-02
C22 -2.477670506072E-01  3.022818849770E-02 -5.224485359765E-02
C23  3.962760020118E-01 -5.019123384729E-02 -8.266221802483E-03
C24 -3.962760020118E-01  5.019123384729E-02  8.266221802483E-03
C25 -3.502402150952E-01  1.652112468348E-01  8.406710560020E-02
C26  3.502402150952E-01 -1.652112468348E-01 -8.406710560020E-02
C27 -4.411754764280E-01 -1.158307875773E-01  3.029433868670E-01
C28  4.411754764280E-01  1.158307875773E-01 -3.029433868670E-01
C29 -3.993638720619E-01 -7.345481979763E-02  3.868791408452E-01
C30  3.993638720619E-01  7.345481979763E-02 -3.868791408452E-01
C31 -2.136571224473E-01 -1.213103592698E-01  4.259807888912E-01
C32  2.136571224473E-01  1.213103592698E-01 -4.259807888912E-01
C33 -7.342524831426E-02 -2.076166796068E-01  3.795227533655E-01
C34  7.342524831426E-02  2.076166796068E-01 -3.795227533655E-01
C35 -1.098286363546E-01 -2.545787012336E-01  2.909790397035E-01
C36  1.098286363546E-01  2.545787012336E-01 -2.909790397035E-01
C37 -2.997233799998E-01 -2.085310460683E-01  2.517358533073E-01
C38  2.997233799998E-01  2.085310460683E-01 -2.517358533073E-01
C39 -3.389784623473E-01 -2.528338614941E-01  1.662966238782E-01
C40  3.389784623473E-01  2.528338614941E-01 -1.662966238782E-01
C41 -1.978013803946E-01 -3.428951831386E-01  1.160736707603E-01
C42  1.978013803946E-01  3.428951831386E-01 -1.160736707603E-01
C43 -7.223713714888E-03 -3.887589262960E-01  1.554348329565E-01
C44  7.223713714888E-03  3.887589262960E-01 -1.554348329565E-01
C45  3.024430291128E-02 -3.427643985141E-01  2.427133917485E-01
C46 -3.024430291128E-02  3.427643985141E-01 -2.427133917485E-01
C47 -2.362824911854E-01 -3.877968843119E-01  2.990839826415E-02
C48  2.362824911854E-01  3.877968843119E-01 -2.990839826415E-02
C49 -9.540137739646E-02 -4.770623997537E-01 -1.970348952457E-02
C50  9.540137739646E-02  4.770623997537E-01  1.970348952457E-02
C51  1.333396242341E-01 -4.775623001556E-01  1.063744830956E-01
C52 -1.333396242341E-01  4.775623001556E-01 -1.063744830956E-01
H53 -1.120801705948E-01  1.586950965343E-01  3.141859672114E-01
H54  1.120801705948E-01 -1.586950965343E-01 -3.141859672114E-01
H55 -2.180252301135E-02  3.611976815241E-01  4.470529991422E-01
H56  2.180252301135E-02 -3.611976815241E-01 -4.470529991422E-01
H57  3.337810737970E-01 -4.612342762479E-01  4.746662634986E-01
H58 -3.337810737970E-01  4.612342762479E-01 -4.746662634986E-01
H59 -3.991257913461E-01 -4.885629594178E-01  3.700131416225E-01
H60  3.991257913461E-01  4.885629594178E-01 -3.700131416225E-01
H61 -1.101611822362E-02  2.748216588969E-02  1.765180414151E-01
H62  1.101611822362E-02 -2.748216588969E-02 -1.765180414151E-01
H63 -2.959428699578E-01  3.762236560950E-01  2.330646195748E-01
H64  2.959428699578E-01 -3.762236560950E-01 -2.330646195748E-01
H65  9.082641566402E-02 -1.065292776328E-01  3.985914085231E-02
H66 -9.082641566402E-02  1.065292776328E-01 -3.985914085231E-02
H67 -1.932419796695E-01  2.413538556100E-01  9.656496608493E-02
H68  1.932419796695E-01 -2.413538556100E-01 -9.656496608493E-02
H69  4.156217727347E-01 -7.934163712803E-02  2.730670097998E-01
H70 -4.156217727347E-01  7.934163712803E-02 -2.730670097998E-01
H71  4.920291986613E-01  2.678012070095E-04  4.250520858199E-01
H72 -4.920291986613E-01 -2.678012070095E-04 -4.250520858199E-01
H73 -1.835149064185E-01 -8.729943795779E-02  4.939697279691E-01
H74  1.835149064185E-01  8.729943795779E-02 -4.939697279691E-01
H75  7.122797361347E-02 -2.430082227115E-01  4.089270080792E-01
H76 -7.122797361347E-02  2.430082227115E-01 -4.089270080792E-01
H77 -4.833048869083E-01 -2.178256256517E-01  1.364588337246E-01
H78  4.833048869083E-01  2.178256256517E-01 -1.364588337246E-01
H79  1.741129863702E-01 -3.781677959084E-01  2.727104318910E-01
H80 -1.741129863702E-01  3.781677959084E-01 -2.727104318910E-01
H81 -3.806795241137E-01 -3.529809842299E-01  4.490576894719E-05
H82  3.806795241137E-01  3.529809842299E-01 -4.490576894719E-05
H83  2.774913276953E-01  4.873738498523E-01  1.363085723993E-01
H84 -2.774913276953E-01 -4.873738498523E-01 -1.363085723993E-01


#===END

data_OPT_STEP_53

_symmetry_space_group_name_H-M 'P 1'
_cell_length_a      6.48280106
_cell_length_b      7.70737221
_cell_length_c     16.41476535
_cell_angle_alpha   98.317069
_cell_angle_beta   92.640453
_cell_angle_gamma   96.222374

loop_
_atom_site_label
_atom_site_fract_x
_atom_site_fract_y
_atom_site_fract_z
C1  4.403457878959E-02  2.359423329781E-01  3.263109431346E-01
C2 -4.403457878959E-02 -2.359423329781E-01 -3.263109431346E-01
C3  9.402122578049E-02  3.478655571320E-01  3.993611357386E-01
C4 -9.402122578049E-02 -3.478655571320E-01 -3.993611357386E-01
C5  2.969656199607E-01  4.485649280827E-01  4.152837499957E-01
C6 -2.969656199607E-01 -4.485649280827E-01 -4.152837499957E-01
C7  4.448064807092E-01  4.336445651129E-01  3.578242223064E-01
C8 -4.448064807092E-01 -4.336445651129E-01 -3.578242223064E-01
C9  3.998873217589E-01  3.172140441830E-01  2.800561528167E-01
C10 -3.998873217589E-01 -3.172140441830E-01 -2.800561528167E-01
C11  1.935247029795E-01  2.165563710620E-01  2.637309849246E-01
C12 -1.935247029795E-01 -2.165563710620E-01 -2.637309849246E-01
C13  1.458628627575E-01  1.038309651316E-01  1.888857605947E-01
C14 -1.458628627575E-01 -1.038309651316E-01 -1.888857605947E-01
C15  2.944229242167E-01  8.409549583803E-02  1.275713409103E-01
C16 -2.944229242167E-01 -8.409549583803E-02 -1.275713409103E-01
C17 -4.984123444450E-01  1.844922844415E-01  1.440726875517E-01
C18  4.984123444450E-01 -1.844922844415E-01 -1.440726875517E-01
C19 -4.527468105197E-01  2.996635181833E-01  2.206175145201E-01
C20  4.527468105197E-01 -2.996635181833E-01 -2.206175145201E-01
C21  2.477461192858E-01 -3.022081520000E-02  5.223514708582E-02
C22 -2.477461192858E-01  3.022081520000E-02 -5.223514708582E-02
C23  3.962812323204E-01 -5.020962232365E-02 -8.265645417245E-03
C24 -3.962812323204E-01  5.020962232365E-02  8.265645417245E-03
C25 -3.502502211511E-01  1.652337904811E-01  8.407022805045E-02
C26  3.502502211511E-01 -1.652337904811E-01 -8.407022805045E-02
C27 -4.412268344769E-01 -1.157992364375E-01  3.029184293940E-01
C28  4.412268344769E-01  1.157992364375E-01 -3.029184293940E-01
C29 -3.994421766406E-01 -7.341723059821E-02  3.868653228437E-01
C30  3.994421766406E-01  7.341723059821E-02 -3.868653228437E-01
C31 -2.137480542337E-01 -1.212601321704E-01  4.259883839753E-01
C32  2.137480542337E-01  1.212601321704E-01 -4.259883839753E-01
C33 -7.353426434635E-02 -2.075981361436E-01  3.795435443028E-01
C34  7.353426434635E-02  2.075981361436E-01 -3.795435443028E-01
C35 -1.099083345699E-01 -2.545632581762E-01  2.909896532017E-01
C36  1.099083345699E-01  2.545632581762E-01 -2.909896532017E-01
C37 -2.997885372465E-01 -2.085259832979E-01  2.517233123761E-01
C38  2.997885372465E-01  2.085259832979E-01 -2.517233123761E-01
C39 -3.390061344090E-01 -2.528160450790E-01  1.662717270900E-01
C40  3.390061344090E-01  2.528160450790E-01 -1.662717270900E-01
C41 -1.978161718458E-01 -3.428706599784E-01  1.160593654850E-01
C42  1.978161718458E-01  3.428706599784E-01 -1.160593654850E-01
C43 -7.242946355914E-03 -3.887098289149E-01  1.554441244769E-01
C44  7.242946355914E-03  3.887098289149E-01 -1.554441244769E-01
C45  3.019784572242E-02 -3.427095401069E-01  2.427335982551E-01
C46 -3.019784572242E-02  3.427095401069E-01 -2.427335982551E-01
C47 -2.363055894283E-01 -3.878309463325E-01  2.988625492019E-02
C48  2.363055894283E-01  3.878309463325E-01 -2.988625492019E-02
C49 -9.539883792104E-02 -4.770739346114E-01 -1.971564230522E-02
C50  9.539883792104E-02  4.770739346114E-01  1.971564230522E-02
C51  1.333132809893E-01 -4.775370713825E-01  1.063974195955E-01
C52 -1.333132809893E-01  4.775370713825E-01 -1.063974195955E-01
H53 -1.121396278840E-01  1.587137532923E-01  3.141690178914E-01
H54  1.121396278840E-01 -1.587137532923E-01 -3.141690178914E-01
H55 -2.186386372044E-02  3.611935572321E-01  4.470468086150E-01
H56  2.186386372044E-02 -3.611935572321E-01 -4.470468086150E-01
H57  3.337210031244E-01 -4.612059947758E-01  4.746728666598E-01
H58 -3.337210031244E-01  4.612059947758E-01 -4.746728666598E-01
H59 -3.991726557084E-01 -4.885210179803E-01  3.700231521297E-01
H60  3.991726557084E-01  4.885210179803E-01 -3.700231521297E-01
H61 -1.105574182185E-02  2.748932010086E-02  1.765036112015E-01
H62  1.105574182185E-02 -2.748932010086E-02 -1.765036112015E-01
H63 -2.959875098877E-01  3.762909515803E-01  2.330636543287E-01
H64  2.959875098877E-01 -3.762909515803E-01 -2.330636543287E-01
H65  9.081956074001E-02 -1.065565447772E-01  3.985217782145E-02
H66 -9.081956074001E-02  1.065565447772E-01 -3.985217782145E-02
H67 -1.932550537844E-01  2.413925706305E-01  9.656978674689E-02
H68  1.932550537844E-01 -2.413925706305E-01 -9.656978674689E-02
H69  4.155481881434E-01 -7.936928200177E-02  2.730307615404E-01
H70 -4.155481881434E-01  7.936928200177E-02 -2.730307615404E-01
H71  4.919108590173E-01  2.645238478128E-04  4.250286531205E-01
H72 -4.919108590173E-01 -2.645238478127E-04 -4.250286531205E-01
H73 -1.835823211977E-01 -8.720078626739E-02  4.939808622685E-01
H74  1.835823211977E-01  8.720078626739E-02 -4.939808622685E-01
H75  7.111970566080E-02 -2.429576439753E-01  4.089638950942E-01
H76 -7.111970566080E-02  2.429576439753E-01 -4.089638950942E-01
H77 -4.833245956157E-01 -2.178212526884E-01  1.364196595174E-01
H78  4.833245956157E-01  2.178212526884E-01 -1.364196595174E-01
H79  1.740746278490E-01 -3.780786105204E-01  2.727446245310E-01
H80 -1.740746278490E-01  3.780786105204E-01 -2.727446245310E-01
H81 -3.806860137272E-01 -3.530166827257E-01  7.289429504231E-06
H82  3.806860137272E-01  3.530166827257E-01 -7.289429504232E-06
H83  2.774252311889E-01  4.873637224322E-01  1.363502472398E-01
H84 -2.774252311889E-01 -4.873637224322E-01 -1.363502472398E-01


#===END

data_OPT_STEP_54

_symmetry_space_group_name_H-M 'P 1'
_cell_length_a      6.48283458
_cell_length_b      7.70969271
_cell_length_c     16.41119682
_cell_angle_alpha   98.314998
_cell_angle_beta   92.653519
_cell_angle_gamma   96.235597

loop_
_atom_site_label
_atom_site_fract_x
_atom_site_fract_y
_atom_site_fract_z
C1  4.395082351445E-02  2.359717714711E-01  3.262871865973E-01
C2 -4.395082351445E-02 -2.359717714711E-01 -3.262871865973E-01
C3  9.392402715578E-02  3.479201164288E-01  3.993445495926E-01
C4 -9.392402715578E-02 -3.479201164288E-01 -3.993445495926E-01
C5  2.968561624563E-01  4.486740794722E-01  4.152783975322E-01
C6 -2.968561624563E-01 -4.486740794722E-01 -4.152783975322E-01
C7  4.447351627818E-01  4.337197421898E-01  3.578358093380E-01
C8 -4.447351627818E-01 -4.337197421898E-01 -3.578358093380E-01
C9  3.998342761687E-01  3.172551500030E-01  2.800617931587E-01
C10 -3.998342761687E-01 -3.172551500030E-01 -2.800617931587E-01
C11  1.934631409368E-01  2.165764424067E-01  2.637185080309E-01
C12 -1.934631409368E-01 -2.165764424067E-01 -2.637185080309E-01
C13  1.458086250928E-01  1.038364187776E-01  1.888645396114E-01
C14 -1.458086250928E-01 -1.038364187776E-01 -1.888645396114E-01
C15  2.944013425970E-01  8.407610705792E-02  1.275657721223E-01
C16 -2.944013425970E-01 -8.407610705792E-02 -1.275657721223E-01
C17 -4.984487289554E-01  1.845368204784E-01  1.440740398952E-01
C18  4.984487289554E-01 -1.845368204784E-01 -1.440740398952E-01
C19 -4.527983497931E-01  2.997360895302E-01  2.206243608831E-01
C20  4.527983497931E-01 -2.997360895302E-01 -2.206243608831E-01
C21  2.477153346071E-01 -3.022234709782E-02  5.221378214056E-02
C22 -2.477153346071E-01  3.022234709782E-02 -5.221378214056E-02
C23  3.962693259249E-01 -5.020827718693E-02 -8.277163380707E-03
C24 -3.962693259249E-01  5.020827718693E-02  8.277163380707E-03
C25 -3.502519609081E-01  1.652554752459E-01  8.408780623197E-02
C26  3.502519609081E-01 -1.652554752459E-01 -8.408780623197E-02
C27 -4.412918867262E-01 -1.157765248737E-01  3.028677692892E-01
C28  4.412918867262E-01  1.157765248737E-01 -3.028677692892E-01
C29 -3.995762100486E-01 -7.341977759662E-02  3.868418138679E-01
C30  3.995762100486E-01  7.341977759662E-02 -3.868418138679E-01
C31 -2.139289846012E-01 -1.212490239552E-01  4.260132273742E-01
C32  2.139289846012E-01  1.212490239552E-01 -4.260132273742E-01
C33 -7.368006722611E-02 -2.075228442981E-01  3.795872543717E-01
C34  7.368006722611E-02  2.075228442981E-01 -3.795872543717E-01
C35 -1.099781707378E-01 -2.544516050759E-01  2.910076910369E-01
C36  1.099781707378E-01  2.544516050759E-01 -2.910076910369E-01
C37 -2.998519349486E-01 -2.084880347959E-01  2.516940290544E-01
C38  2.998519349486E-01  2.084880347959E-01 -2.516940290544E-01
C39 -3.390395310457E-01 -2.528076024954E-01  1.662195960824E-01
C40  3.390395310457E-01  2.528076024954E-01 -1.662195960824E-01
C41 -1.978833018681E-01 -3.429130419936E-01  1.160347961855E-01
C42  1.978833018681E-01  3.429130419936E-01 -1.160347961855E-01
C43 -7.307301754194E-03 -3.886703343405E-01  1.554689030926E-01
C44  7.307301754194E-03  3.886703343405E-01 -1.554689030926E-01
C45  3.010540572199E-02 -3.426283036080E-01  2.427806353604E-01
C46 -3.010540572199E-02  3.426283036080E-01 -2.427806353604E-01
C47 -2.363020794211E-01 -3.878545685004E-01  2.983470153262E-02
C48  2.363020794211E-01  3.878545685004E-01 -2.983470153262E-02
C49 -9.539554287918E-02 -4.771068442074E-01 -1.974139512720E-02
C50  9.539554287918E-02  4.771068442074E-01  1.974139512720E-02
C51  1.332689739740E-01 -4.774777826719E-01  1.064473745362E-01
C52 -1.332689739740E-01  4.774777826719E-01 -1.064473745362E-01
H53 -1.122343536208E-01  1.587337385128E-01  3.141321274203E-01
H54  1.122343536208E-01 -1.587337385128E-01 -3.141321274203E-01
H55 -2.197761343039E-02  3.612334851905E-01  4.470233667349E-01
H56  2.197761343039E-02 -3.612334851905E-01 -4.470233667349E-01
H57  3.336334481078E-01 -4.611344015757E-01  4.746859907512E-01
H58 -3.336334481078E-01  4.611344015757E-01 -4.746859907512E-01
H59 -3.992575838001E-01 -4.883943667997E-01  3.700382218580E-01
H60  3.992575838001E-01  4.883943667997E-01 -3.700382218580E-01
H61 -1.114752435253E-02  2.753955744427E-02  1.764566892386E-01
H62  1.114752435253E-02 -2.753955744427E-02 -1.764566892386E-01
H63 -2.960137819340E-01  3.763464111473E-01  2.330890763597E-01
H64  2.960137819340E-01 -3.763464111473E-01 -2.330890763597E-01
H65  9.076896488765E-02 -1.065470509146E-01  3.981286293473E-02
H66 -9.076896488765E-02  1.065470509146E-01 -3.981286293473E-02
H67 -1.932875468413E-01  2.415022690426E-01  9.658103467924E-02
H68  1.932875468413E-01 -2.415022690426E-01 -9.658103467924E-02
H69  4.155240551320E-01 -7.934295904393E-02  2.729462953432E-01
H70 -4.155240551320E-01  7.934295904393E-02 -2.729462953432E-01
H71  4.917536652279E-01  2.487019552496E-04  4.249826465355E-01
H72 -4.917536652279E-01 -2.487019552495E-04 -4.249826465355E-01
H73 -1.837782798366E-01 -8.718428870527E-02  4.940223271642E-01
H74  1.837782798366E-01  8.718428870527E-02 -4.940223271642E-01
H75  7.097604556077E-02 -2.428275762309E-01  4.090371155311E-01
H76 -7.097604556077E-02  2.428275762309E-01 -4.090371155311E-01
H77 -4.833345348284E-01 -2.178327177750E-01  1.363348929258E-01
H78  4.833345348284E-01  2.178327177750E-01 -1.363348929258E-01
H79  1.739650807344E-01 -3.779726428990E-01  2.728262671404E-01
H80 -1.739650807344E-01  3.779726428990E-01 -2.728262671404E-01
H81 -3.806637375721E-01 -3.530690195382E-01 -7.776471560636E-05
H82  3.806637375721E-01  3.530690195382E-01  7.776471560636E-05
H83  2.774431177622E-01  4.875609856263E-01  1.364275509015E-01
H84 -2.774431177622E-01 -4.875609856263E-01 -1.364275509015E-01


#===END

data_OPT_STEP_55

_symmetry_space_group_name_H-M 'P 1'
_cell_length_a      6.48327273
_cell_length_b      7.70914613
_cell_length_c     16.41119047
_cell_angle_alpha   98.319273
_cell_angle_beta   92.655977
_cell_angle_gamma   96.235311

loop_
_atom_site_label
_atom_site_fract_x
_atom_site_fract_y
_atom_site_fract_z
C1  4.394810061431E-02  2.359718471849E-01  3.262832450548E-01
C2 -4.394810061431E-02 -2.359718471849E-01 -3.262832450548E-01
C3  9.391543255641E-02  3.479224182336E-01  3.993468182805E-01
C4 -9.391543255641E-02 -3.479224182336E-01 -3.993468182805E-01
C5  2.968366916707E-01  4.486777751018E-01  4.152929396677E-01
C6 -2.968366916707E-01 -4.486777751018E-01 -4.152929396677E-01
C7  4.447115047076E-01  4.337226025787E-01  3.578554111264E-01
C8 -4.447115047076E-01 -4.337226025787E-01 -3.578554111264E-01
C9  3.998118451976E-01  3.172660759537E-01  2.800729094694E-01
C10 -3.998118451976E-01 -3.172660759537E-01 -2.800729094694E-01
C11  1.934548452920E-01  2.165790378338E-01  2.637181909679E-01
C12 -1.934548452920E-01 -2.165790378338E-01 -2.637181909679E-01
C13  1.458134494819E-01  1.038261283267E-01  1.888594072647E-01
C14 -1.458134494819E-01 -1.038261283267E-01 -1.888594072647E-01
C15  2.943927725759E-01  8.408703402371E-02  1.275599152342E-01
C16 -2.943927725759E-01 -8.408703402371E-02 -1.275599152342E-01
C17 -4.984711001835E-01  1.845556856159E-01  1.440804967045E-01
C18  4.984711001835E-01 -1.845556856159E-01 -1.440804967045E-01
C19 -4.528278214649E-01  2.997555160951E-01  2.206387210171E-01
C20  4.528278214649E-01 -2.997555160951E-01 -2.206387210171E-01
C21  2.477303097478E-01 -3.023948127645E-02  5.220626802928E-02
C22 -2.477303097478E-01  3.023948127645E-02 -5.220626802928E-02
C23  3.962802690819E-01 -5.021931105465E-02 -8.281664239158E-03
C24 -3.962802690819E-01  5.021931105465E-02  8.281664239158E-03
C25 -3.502731655213E-01  1.652708344088E-01  8.409977122371E-02
C26  3.502731655213E-01 -1.652708344088E-01 -8.409977122371E-02
C27 -4.412898337638E-01 -1.157725880673E-01  3.028705967287E-01
C28  4.412898337638E-01  1.157725880673E-01 -3.028705967287E-01
C29 -3.995593061063E-01 -7.337961079333E-02  3.868445473393E-01
C30  3.995593061063E-01  7.337961079333E-02 -3.868445473393E-01
C31 -2.139253061414E-01 -1.212067090995E-01  4.260192760809E-01
C32  2.139253061414E-01  1.212067090995E-01 -4.260192760809E-01
C33 -7.369765401140E-02 -2.075056135433E-01  3.795953725733E-01
C34  7.369765401140E-02  2.075056135433E-01 -3.795953725733E-01
C35 -1.100136360353E-01 -2.544745945622E-01  2.910158962329E-01
C36  1.100136360353E-01  2.544745945622E-01 -2.910158962329E-01
C37 -2.998643037337E-01 -2.084987644139E-01  2.516982662678E-01
C38  2.998643037337E-01  2.084987644139E-01 -2.516982662678E-01
C39 -3.390394960068E-01 -2.528118399934E-01  1.662210276876E-01
C40  3.390394960068E-01  2.528118399934E-01 -1.662210276876E-01
C41 -1.978734171060E-01 -3.428988080067E-01  1.160352508235E-01
C42  1.978734171060E-01  3.428988080067E-01 -1.160352508235E-01
C43 -7.312581598467E-03 -3.886608441812E-01  1.554726861125E-01
C44  7.312581598467E-03  3.886608441812E-01 -1.554726861125E-01
C45  3.008441689323E-02 -3.426281580823E-01  2.427879371337E-01
C46 -3.008441689323E-02  3.426281580823E-01 -2.427879371337E-01
C47 -2.362942511753E-01 -3.878546918828E-01  2.983331919314E-02
C48  2.362942511753E-01  3.878546918828E-01 -2.983331919314E-02
C49 -9.538747445515E-02 -4.771028675105E-01 -1.974306135200E-02
C50  9.538747445515E-02  4.771028675105E-01  1.974306135200E-02
C51  1.332359931598E-01 -4.775064649876E-01  1.064536876475E-01
C52 -1.332359931598E-01  4.775064649876E-01 -1.064536876475E-01
H53 -1.122213492501E-01  1.587159012340E-01  3.141246684000E-01
H54  1.122213492501E-01 -1.587159012340E-01 -3.141246684000E-01
H55 -2.199617349073E-02  3.612574014785E-01  4.470166184019E-01
H56  2.199617349073E-02 -3.612574014785E-01 -4.470166184019E-01
H57  3.336014328228E-01 -4.611111537507E-01  4.747009931099E-01
H58 -3.336014328228E-01  4.611111537507E-01 -4.747009931099E-01
H59 -3.992944829509E-01 -4.883786464867E-01  3.700627038483E-01
H60  3.992944829509E-01  4.883786464867E-01 -3.700627038483E-01
H61 -1.112414058777E-02  2.750738107919E-02  1.764482543993E-01
H62  1.112414058777E-02 -2.750738107919E-02 -1.764482543993E-01
H63 -2.960502952647E-01  3.763663766467E-01  2.331117926884E-01
H64  2.960502952647E-01 -3.763663766467E-01 -2.331117926884E-01
H65  9.079865391289E-02 -1.065811205344E-01  3.980026128391E-02
H66 -9.079865391289E-02  1.065811205344E-01 -3.980026128391E-02
H67 -1.933178501809E-01  2.415257891024E-01  9.660002170333E-02
H68  1.933178501809E-01 -2.415257891024E-01 -9.660002170333E-02
H69  4.155549184557E-01 -7.931147601247E-02  2.729446678043E-01
H70 -4.155549184557E-01  7.931147601247E-02 -2.729446678043E-01
H71  4.917806140355E-01  3.114072661100E-04  4.249803033124E-01
H72 -4.917806140355E-01 -3.114072661100E-04 -4.249803033124E-01
H73 -1.837713796507E-01 -8.713161080712E-02  4.940297225804E-01
H74  1.837713796507E-01  8.713161080712E-02 -4.940297225804E-01
H75  7.094646392343E-02 -2.428163566010E-01  4.090457299256E-01
H76 -7.094646392343E-02  2.428163566010E-01 -4.090457299256E-01
H77 -4.833301954099E-01 -2.178453765098E-01  1.363342184111E-01
H78  4.833301954099E-01  2.178453765098E-01 -1.363342184111E-01
H79  1.739544135527E-01 -3.779470689157E-01  2.728344242824E-01
H80 -1.739544135527E-01  3.779470689157E-01 -2.728344242824E-01
H81 -3.806557396760E-01 -3.530814185424E-01 -8.105563509930E-05
H82  3.806557396760E-01  3.530814185424E-01  8.105563509930E-05
H83  2.774056073167E-01  4.875346279333E-01  1.364363738178E-01
H84 -2.774056073167E-01 -4.875346279333E-01 -1.364363738178E-01


#===END

data_OPT_STEP_56

_symmetry_space_group_name_H-M 'P 1'
_cell_length_a      6.48309368
_cell_length_b      7.71045725
_cell_length_c     16.40967582
_cell_angle_alpha   98.321961
_cell_angle_beta   92.658598
_cell_angle_gamma   96.239126

loop_
_atom_site_label
_atom_site_fract_x
_atom_site_fract_y
_atom_site_fract_z
C1  4.389464496102E-02  2.360036448466E-01  3.262859560969E-01
C2 -4.389464496102E-02 -2.360036448466E-01 -3.262859560969E-01
C3  9.384257189369E-02  3.479849556006E-01  3.993482168516E-01
C4 -9.384257189369E-02 -3.479849556006E-01 -3.993482168516E-01
C5  2.967941376569E-01  4.486933899673E-01  4.153082541857E-01
C6 -2.967941376569E-01 -4.486933899673E-01 -4.153082541857E-01
C7  4.446339643519E-01  4.338071843986E-01  3.578536421554E-01
C8 -4.446339643519E-01 -4.338071843986E-01 -3.578536421554E-01
C9  3.997494046988E-01  3.173280988931E-01  2.800725518718E-01
C10 -3.997494046988E-01 -3.173280988931E-01 -2.800725518718E-01
C11  1.934189855652E-01  2.165912855273E-01  2.637239408940E-01
C12 -1.934189855652E-01 -2.165912855273E-01 -2.637239408940E-01
C13  1.457936172612E-01  1.038184854368E-01  1.888631477889E-01
C14 -1.457936172612E-01 -1.038184854368E-01 -1.888631477889E-01
C15  2.943782905553E-01  8.408460276209E-02  1.275626663284E-01
C16 -2.943782905553E-01 -8.408460276209E-02 -1.275626663284E-01
C17 -4.984700219857E-01  1.845220027792E-01  1.440983810529E-01
C18  4.984700219857E-01 -1.845220027792E-01 -1.440983810529E-01
C19 -4.528566890875E-01  2.997676499551E-01  2.206514634455E-01
C20  4.528566890875E-01 -2.997676499551E-01 -2.206514634455E-01
C21  2.477540991393E-01 -3.029364545871E-02  5.221484936289E-02
C22 -2.477540991393E-01  3.029364545871E-02 -5.221484936289E-02
C23  3.963060009560E-01 -5.026078463767E-02 -8.275210566017E-03
C24 -3.963060009560E-01  5.026078463767E-02  8.275210566017E-03
C25 -3.503117415362E-01  1.653188003878E-01  8.409797025528E-02
C26  3.503117415362E-01 -1.653188003878E-01 -8.409797025528E-02
C27 -4.412383466936E-01 -1.157537113571E-01  3.028605614177E-01
C28  4.412383466936E-01  1.157537113571E-01 -3.028605614177E-01
C29 -3.995072304612E-01 -7.332548294290E-02  3.868418768576E-01
C30  3.995072304612E-01  7.332548294290E-02 -3.868418768576E-01
C31 -2.138854227319E-01 -1.211413134355E-01  4.260349825840E-01
C32  2.138854227319E-01  1.211413134355E-01 -4.260349825840E-01
C33 -7.367970732365E-02 -2.074761093158E-01  3.796190500801E-01
C34  7.367970732365E-02  2.074761093158E-01 -3.796190500801E-01
C35 -1.100134861007E-01 -2.544996474522E-01  2.910319562380E-01
C36  1.100134861007E-01  2.544996474522E-01 -2.910319562380E-01
C37 -2.998108041385E-01 -2.084777607896E-01  2.516960912741E-01
C38  2.998108041385E-01  2.084777607896E-01 -2.516960912741E-01
C39 -3.389710239776E-01 -2.527818554981E-01  1.662106840730E-01
C40  3.389710239776E-01  2.527818554981E-01 -1.662106840730E-01
C41 -1.977988994132E-01 -3.428438120197E-01  1.160291884995E-01
C42  1.977988994132E-01  3.428438120197E-01 -1.160291884995E-01
C43 -7.291432434919E-03 -3.886488270592E-01  1.554803418522E-01
C44  7.291432434919E-03  3.886488270592E-01 -1.554803418522E-01
C45  3.009217468988E-02 -3.426336608088E-01  2.428049746002E-01
C46 -3.009217468988E-02  3.426336608088E-01 -2.428049746002E-01
C47 -2.362575111712E-01 -3.878518662735E-01  2.982451673155E-02
C48  2.362575111712E-01  3.878518662735E-01 -2.982451673155E-02
C49 -9.537327280449E-02 -4.771012372838E-01 -1.974780674685E-02
C50  9.537327280449E-02  4.771012372838E-01  1.974780674685E-02
C51  1.332643243389E-01 -4.774542843523E-01  1.064609164182E-01
C52 -1.332643243389E-01  4.774542843523E-01 -1.064609164182E-01
H53 -1.122673933401E-01  1.587294674893E-01  3.141251663308E-01
H54  1.122673933401E-01 -1.587294674893E-01 -3.141251663308E-01
H55 -2.209436257687E-02  3.613488005126E-01  4.470105772302E-01
H56  2.209436257687E-02 -3.613488005126E-01 -4.470105772302E-01
H57  3.335342501624E-01 -4.610514394858E-01  4.747117467967E-01
H58 -3.335342501624E-01  4.610514394858E-01 -4.747117467967E-01
H59 -3.993585897468E-01 -4.883067524377E-01  3.700700954788E-01
H60  3.993585897468E-01  4.883067524377E-01 -3.700700954788E-01
H61 -1.110410123095E-02  2.742129072008E-02  1.764625388818E-01
H62  1.110410123095E-02 -2.742129072008E-02 -1.764625388818E-01
H63 -2.960967034018E-01  3.764153429167E-01  2.331238402117E-01
H64  2.960967034018E-01 -3.764153429167E-01 -2.331238402117E-01
H65  9.083247301382E-02 -1.066600054711E-01  3.980529959217E-02
H66 -9.083247301382E-02  1.066600054711E-01 -3.980529959217E-02
H67 -1.933282053254E-01  2.415288584826E-01  9.661882543858E-02
H68  1.933282053254E-01 -2.415288584826E-01 -9.661882543858E-02
H69  4.156042566919E-01 -7.932143846311E-02  2.729203157602E-01
H70 -4.156042566919E-01  7.932143846311E-02 -2.729203157602E-01
H71  4.918592102565E-01  4.297575552293E-04  4.249577177294E-01
H72 -4.918592102565E-01 -4.297575552292E-04 -4.249577177294E-01
H73 -1.837502489324E-01 -8.707933679949E-02  4.940557576805E-01
H74  1.837502489324E-01  8.707933679949E-02 -4.940557576805E-01
H75  7.089994909017E-02 -2.428529903129E-01  4.090927589301E-01
H76 -7.089994909017E-02  2.428529903129E-01 -4.090927589301E-01
H77 -4.832349906539E-01 -2.177996609550E-01  1.363081947465E-01
H78  4.832349906539E-01  2.177996609550E-01 -1.363081947465E-01
H79  1.739240726975E-01 -3.779847974811E-01  2.728665119107E-01
H80 -1.739240726975E-01  3.779847974811E-01 -2.728665119107E-01
H81 -3.806184998970E-01 -3.530970040323E-01 -1.013748145441E-04
H82  3.806184998970E-01  3.530970040323E-01  1.013748145441E-04
H83  2.773715274738E-01  4.875185844941E-01  1.364601665104E-01
H84 -2.773715274738E-01 -4.875185844941E-01 -1.364601665104E-01


#===END

data_OPT_STEP_57

_symmetry_space_group_name_H-M 'P 1'
_cell_length_a      6.48320514
_cell_length_b      7.70933685
_cell_length_c     16.41089354
_cell_angle_alpha   98.320179
_cell_angle_beta   92.655867
_cell_angle_gamma   96.235721

loop_
_atom_site_label
_atom_site_fract_x
_atom_site_fract_y
_atom_site_fract_z
C1  4.393518167417E-02  2.359799428099E-01  3.262858260815E-01
C2 -4.393518167417E-02 -2.359799428099E-01 -3.262858260815E-01
C3  9.389694168255E-02  3.479390423231E-01  3.993488522766E-01
C4 -9.389694168255E-02 -3.479390423231E-01 -3.993488522766E-01
C5  2.968321191222E-01  4.486709058543E-01  4.153001957737E-01
C6 -2.968321191222E-01 -4.486709058543E-01 -4.153001957737E-01
C7  4.446879949604E-01  4.337496080310E-01  3.578536997762E-01
C8 -4.446879949604E-01 -4.337496080310E-01 -3.578536997762E-01
C9  3.997946867982E-01  3.172829843059E-01  2.800730712602E-01
C10 -3.997946867982E-01 -3.172829843059E-01 -2.800730712602E-01
C11  1.934463429790E-01  2.165820067094E-01  2.637208089505E-01
C12 -1.934463429790E-01 -2.165820067094E-01 -2.637208089505E-01
C13  1.458094167967E-01  1.038245209174E-01  1.888612302300E-01
C14 -1.458094167967E-01 -1.038245209174E-01 -1.888612302300E-01
C15  2.943885483235E-01  8.408899492260E-02  1.275605339161E-01
C16 -2.943885483235E-01 -8.408899492260E-02 -1.275605339161E-01
C17 -4.984679625609E-01  1.845397693487E-01  1.440870650215E-01
C18  4.984679625609E-01 -1.845397693487E-01 -1.440870650215E-01
C19 -4.528334287597E-01  2.997528316834E-01  2.206435098941E-01
C20  4.528334287597E-01 -2.997528316834E-01 -2.206435098941E-01
C21  2.477428294674E-01 -3.026113474696E-02  5.221086808103E-02
C22 -2.477428294674E-01  3.026113474696E-02 -5.221086808103E-02
C23  3.962936266954E-01 -5.023942262206E-02 -8.277480349760E-03
C24 -3.962936266954E-01  5.023942262206E-02  8.277480349760E-03
C25 -3.502897464878E-01  1.652908751342E-01  8.409705604420E-02
C26  3.502897464878E-01 -1.652908751342E-01 -8.409705604420E-02
C27 -4.412752444977E-01 -1.157722446022E-01  3.028682024430E-01
C28  4.412752444977E-01  1.157722446022E-01 -3.028682024430E-01
C29 -3.995410452534E-01 -7.336322800060E-02  3.868429265480E-01
C30  3.995410452534E-01  7.336322800060E-02 -3.868429265480E-01
C31 -2.139067604699E-01 -1.211847729984E-01  4.260215274489E-01
C32  2.139067604699E-01  1.211847729984E-01 -4.260215274489E-01
C33 -7.368498010720E-02 -2.074971163995E-01  3.795991862689E-01
C34  7.368498010720E-02  2.074971163995E-01 -3.795991862689E-01
C35 -1.100141496476E-01 -2.544931281867E-01  2.910188776888E-01
C36  1.100141496476E-01  2.544931281867E-01 -2.910188776888E-01
C37 -2.998459521558E-01 -2.084965218768E-01  2.516975620320E-01
C38  2.998459521558E-01  2.084965218768E-01 -2.516975620320E-01
C39 -3.390150257280E-01 -2.528029862828E-01  1.662190645380E-01
C40  3.390150257280E-01  2.528029862828E-01 -1.662190645380E-01
C41 -1.978415855786E-01 -3.428745321253E-01  1.160334467763E-01
C42  1.978415855786E-01  3.428745321253E-01 -1.160334467763E-01
C43 -7.302694585326E-03 -3.886598571700E-01  1.554726421137E-01
C44  7.302694585326E-03  3.886598571700E-01 -1.554726421137E-01
C45  3.009020508225E-02 -3.426371008823E-01  2.427895156683E-01
C46 -3.009020508225E-02  3.426371008823E-01 -2.427895156683E-01
C47 -2.362804137346E-01 -3.878516958235E-01  2.983291860900E-02
C48  2.362804137346E-01  3.878516958235E-01 -2.983291860900E-02
C49 -9.538039325889E-02 -4.770978341782E-01 -1.974309902722E-02
C50  9.538039325889E-02  4.770978341782E-01  1.974309902722E-02
C51  1.332499945912E-01 -4.774886743878E-01  1.064520582071E-01
C52 -1.332499945912E-01  4.774886743878E-01 -1.064520582071E-01
H53 -1.122321590529E-01  1.587203620750E-01  3.141266534409E-01
H54  1.122321590529E-01 -1.587203620750E-01 -3.141266534409E-01
H55 -2.202813537537E-02  3.612940039060E-01  4.470139031507E-01
H56  2.202813537537E-02 -3.612940039060E-01 -4.470139031507E-01
H57  3.335793467152E-01 -4.610882194907E-01  4.747029096546E-01
H58 -3.335793467152E-01  4.610882194907E-01 -4.747029096546E-01
H59 -3.993110385769E-01 -4.883616026502E-01  3.700646786152E-01
H60  3.993110385769E-01  4.883616026502E-01 -3.700646786152E-01
H61 -1.111016212015E-02  2.747214893963E-02  1.764559103633E-01
H62  1.111016212015E-02 -2.747214893963E-02 -1.764559103633E-01
H63 -2.960633689880E-01  3.763772654713E-01  2.331155468300E-01
H64  2.960633689880E-01 -3.763772654713E-01 -2.331155468300E-01
H65  9.081560026274E-02 -1.066117961200E-01  3.980429043241E-02
H66 -9.081560026274E-02  1.066117961200E-01 -3.980429043241E-02
H67 -1.933188957415E-01  2.415182878472E-01  9.660678387182E-02
H68  1.933188957415E-01 -2.415182878472E-01 -9.660678387182E-02
H69  4.155653077353E-01 -7.932304911158E-02  2.729390076487E-01
H70 -4.155653077353E-01  7.932304911158E-02 -2.729390076487E-01
H71  4.918083428772E-01  3.545919834555E-04  4.249714533288E-01
H72 -4.918083428772E-01 -3.545919834555E-04 -4.249714533288E-01
H73 -1.837602100645E-01 -8.711659975690E-02  4.940347538152E-01
H74  1.837602100645E-01  8.711659975690E-02 -4.940347538152E-01
H75  7.093227965358E-02 -2.428391313177E-01  4.090565647254E-01
H76 -7.093227965358E-02  2.428391313177E-01 -4.090565647254E-01
H77 -4.832972893689E-01 -2.178298440568E-01  1.363282144279E-01
H78  4.832972893689E-01  2.178298440568E-01 -1.363282144279E-01
H79  1.739453241104E-01 -3.779727425311E-01  2.728398768783E-01
H80 -1.739453241104E-01  3.779727425311E-01 -2.728398768783E-01
H81 -3.806411715654E-01 -3.530812181923E-01 -8.417823885063E-05
H82  3.806411715654E-01  3.530812181923E-01  8.417823885063E-05
H83  2.773884432134E-01  4.875122491840E-01  1.364400003697E-01
H84 -2.773884432134E-01 -4.875122491840E-01 -1.364400003697E-01


#===END

data_OPT_STEP_58

_symmetry_space_group_name_H-M 'P 1'
_cell_length_a      6.48319957
_cell_length_b      7.70918456
_cell_length_c     16.41111241
_cell_angle_alpha   98.322855
_cell_angle_beta   92.656269
_cell_angle_gamma   96.234543

loop_
_atom_site_label
_atom_site_fract_x
_atom_site_fract_y
_atom_site_fract_z
C1  4.393906916398E-02  2.359727437261E-01  3.262885103895E-01
C2 -4.393906916398E-02 -2.359727437261E-01 -3.262885103895E-01
C3  9.389589071167E-02  3.479397092173E-01  3.993517049414E-01
C4 -9.389589071167E-02 -3.479397092173E-01 -3.993517049414E-01
C5  2.968269025711E-01  4.486781850684E-01  4.153049793341E-01
C6 -2.968269025711E-01 -4.486781850684E-01 -4.153049793341E-01
C7  4.446889224402E-01  4.337447092767E-01  3.578619669046E-01
C8 -4.446889224402E-01 -4.337447092767E-01 -3.578619669046E-01
C9  3.997996075171E-01  3.172721677842E-01  2.800807057175E-01
C10 -3.997996075171E-01 -3.172721677842E-01 -2.800807057175E-01
C11  1.934525911571E-01  2.165699218285E-01  2.637252697535E-01
C12 -1.934525911571E-01 -2.165699218285E-01 -2.637252697535E-01
C13  1.458177800247E-01  1.038097911610E-01  1.888640952242E-01
C14 -1.458177800247E-01 -1.038097911610E-01 -1.888640952242E-01
C15  2.943927788992E-01  8.408166491480E-02  1.275622753641E-01
C16 -2.943927788992E-01 -8.408166491480E-02 -1.275622753641E-01
C17 -4.984779443999E-01  1.845564683202E-01  1.440865510272E-01
C18  4.984779443999E-01 -1.845564683202E-01 -1.440865510272E-01
C19 -4.528352159718E-01  2.997538681746E-01  2.206491495069E-01
C20  4.528352159718E-01 -2.997538681746E-01 -2.206491495069E-01
C21  2.477473330861E-01 -3.026827242262E-02  5.221022121481E-02
C22 -2.477473330861E-01  3.026827242262E-02 -5.221022121481E-02
C23  3.962905750166E-01 -5.023359041856E-02 -8.280832835459E-03
C24 -3.962905750166E-01  5.023359041856E-02  8.280832835459E-03
C25 -3.502944781577E-01  1.652981272471E-01  8.409954504805E-02
C26  3.502944781577E-01 -1.652981272471E-01 -8.409954504805E-02
C27 -4.412773446150E-01 -1.157598074056E-01  3.028699062817E-01
C28  4.412773446150E-01  1.157598074056E-01 -3.028699062817E-01
C29 -3.995256396839E-01 -7.332169450513E-02  3.868426713093E-01
C30  3.995256396839E-01  7.332169450513E-02 -3.868426713093E-01
C31 -2.138971598177E-01 -1.211540498650E-01  4.260218233474E-01
C32  2.138971598177E-01  1.211540498650E-01 -4.260218233474E-01
C33 -7.369211273168E-02 -2.074961022672E-01  3.796005503560E-01
C34  7.369211273168E-02  2.074961022672E-01 -3.796005503560E-01
C35 -1.100215469344E-01 -2.544965111403E-01  2.910200855821E-01
C36  1.100215469344E-01  2.544965111403E-01 -2.910200855821E-01
C37 -2.998547427602E-01 -2.084987470051E-01  2.516994778056E-01
C38  2.998547427602E-01  2.084987470051E-01 -2.516994778056E-01
C39 -3.390285962050E-01 -2.528135831194E-01  1.662217384677E-01
C40  3.390285962050E-01  2.528135831194E-01 -1.662217384677E-01
C41 -1.978518368872E-01 -3.428846698217E-01  1.160354753322E-01
C42  1.978518368872E-01  3.428846698217E-01 -1.160354753322E-01
C43 -7.315643989870E-03 -3.886777770970E-01  1.554738764965E-01
C44  7.315643989870E-03  3.886777770970E-01 -1.554738764965E-01
C45  3.007863295224E-02 -3.426526213702E-01  2.427905691180E-01
C46 -3.007863295224E-02  3.426526213702E-01 -2.427905691180E-01
C47 -2.362856062294E-01 -3.878541058484E-01  2.983478973441E-02
C48  2.362856062294E-01  3.878541058484E-01 -2.983478973441E-02
C49 -9.538002686602E-02 -4.770952676007E-01 -1.974243252422E-02
C50  9.538002686602E-02  4.770952676007E-01  1.974243252422E-02
C51  1.332379700187E-01 -4.775088915273E-01  1.064522833268E-01
C52 -1.332379700187E-01  4.775088915273E-01 -1.064522833268E-01
H53 -1.122323182660E-01  1.587223130038E-01  3.141260438068E-01
H54  1.122323182660E-01 -1.587223130038E-01 -3.141260438068E-01
H55 -2.204171281102E-02  3.613154909897E-01  4.470102326020E-01
H56  2.204171281102E-02 -3.613154909897E-01 -4.470102326020E-01
H57  3.335684789770E-01 -4.610684835446E-01  4.747057036413E-01
H58 -3.335684789770E-01  4.610684835446E-01 -4.747057036413E-01
H59 -3.993065499737E-01 -4.883750910135E-01  3.700764457439E-01
H60  3.993065499737E-01  4.883750910135E-01 -3.700764457439E-01
H61 -1.109792744211E-02  2.745213390042E-02  1.764588303982E-01
H62  1.109792744211E-02 -2.745213390042E-02 -1.764588303982E-01
H63 -2.960760161410E-01  3.763950051583E-01  2.331186405936E-01
H64  2.960760161410E-01 -3.763950051583E-01 -2.331186405936E-01
H65  9.083057709241E-02 -1.066376752640E-01  3.980690977568E-02
H66 -9.083057709241E-02  1.066376752640E-01 -3.980690977568E-02
H67 -1.933190236211E-01  2.415166449103E-01  9.661303792103E-02
H68  1.933190236211E-01 -2.415166449103E-01 -9.661303792103E-02
H69  4.155513282578E-01 -7.932640769407E-02  2.729423215932E-01
H70 -4.155513282578E-01  7.932640769407E-02 -2.729423215932E-01
H71  4.918193380220E-01  4.010129468313E-04  4.249685441792E-01
H72 -4.918193380220E-01 -4.010129468313E-04 -4.249685441792E-01
H73 -1.837410606653E-01 -8.707244651425E-02  4.940339679350E-01
H74  1.837410606653E-01  8.707244651425E-02 -4.940339679350E-01
H75  7.092140691392E-02 -2.428432381691E-01  4.090568949864E-01
H76 -7.092140691392E-02  2.428432381691E-01 -4.090568949864E-01
H77 -4.833079132369E-01 -2.178354089273E-01  1.363308740962E-01
H78  4.833079132369E-01  2.178354089273E-01 -1.363308740962E-01
H79  1.739371021506E-01 -3.779859886622E-01  2.728403337908E-01
H80 -1.739371021506E-01  3.779859886622E-01 -2.728403337908E-01
H81 -3.806345445936E-01 -3.530644419984E-01 -8.319119156868E-05
H82  3.806345445936E-01  3.530644419984E-01  8.319119156868E-05
H83  2.773559802880E-01  4.874594046121E-01  1.364419983082E-01
H84 -2.773559802880E-01 -4.874594046121E-01 -1.364419983082E-01


#===END

data_OPT_STEP_59

_symmetry_space_group_name_H-M 'P 1'
_cell_length_a      6.48318561
_cell_length_b      7.70940908
_cell_length_c     16.41089527
_cell_angle_alpha   98.324703
_cell_angle_beta   92.657448
_cell_angle_gamma   96.235470

loop_
_atom_site_label
_atom_site_fract_x
_atom_site_fract_y
_atom_site_fract_z
C1  4.392512422027E-02  2.359846836514E-01  3.262867197410E-01
C2 -4.392512422027E-02 -2.359846836514E-01 -3.262867197410E-01
C3  9.387870655685E-02  3.479567906265E-01  3.993512751516E-01
C4 -9.387870655685E-02 -3.479567906265E-01 -3.993512751516E-01
C5  2.968109912445E-01  4.486980045643E-01  4.153085032669E-01
C6 -2.968109912445E-01 -4.486980045643E-01 -4.153085032669E-01
C7  4.446769970510E-01  4.337611157869E-01  3.578671347429E-01
C8 -4.446769970510E-01 -4.337611157869E-01 -3.578671347429E-01
C9  3.997905302878E-01  3.172841098455E-01  2.800839443349E-01
C10 -3.997905302878E-01 -3.172841098455E-01 -2.800839443349E-01
C11  1.934428000379E-01  2.165772693520E-01  2.637254710677E-01
C12 -1.934428000379E-01 -2.165772693520E-01 -2.637254710677E-01
C13  1.458121175748E-01  1.038080658024E-01  1.888637267541E-01
C14 -1.458121175748E-01 -1.038080658024E-01 -1.888637267541E-01
C15  2.943895457373E-01  8.408010601339E-02  1.275625751489E-01
C16 -2.943895457373E-01 -8.408010601339E-02 -1.275625751489E-01
C17 -4.984793694086E-01  1.845591131747E-01  1.440899518617E-01
C18  4.984793694086E-01 -1.845591131747E-01 -1.440899518617E-01
C19 -4.528406723788E-01  2.997639163715E-01  2.206535906211E-01
C20  4.528406723788E-01 -2.997639163715E-01 -2.206535906211E-01
C21  2.477440239335E-01 -3.027128285640E-02  5.220805680676E-02
C22 -2.477440239335E-01  3.027128285640E-02 -5.220805680676E-02
C23  3.962903705015E-01 -5.023732880238E-02 -8.282001141780E-03
C24 -3.962903705015E-01  5.023732880238E-02  8.282001141780E-03
C25 -3.502932841140E-01  1.653012130769E-01  8.410375242204E-02
C26  3.502932841140E-01 -1.653012130769E-01 -8.410375242204E-02
C27 -4.412889272596E-01 -1.157463529500E-01  3.028655673498E-01
C28  4.412889272596E-01  1.157463529500E-01 -3.028655673498E-01
C29 -3.995429721229E-01 -7.330298883269E-02  3.868406225313E-01
C30  3.995429721229E-01  7.330298883269E-02 -3.868406225313E-01
C31 -2.139201830458E-01 -1.211341104262E-01  4.260251067381E-01
C32  2.139201830458E-01  1.211341104262E-01 -4.260251067381E-01
C33 -7.370966911132E-02 -2.074730131559E-01  3.796058556506E-01
C34  7.370966911132E-02  2.074730131559E-01 -3.796058556506E-01
C35 -1.100294242251E-01 -2.544743207992E-01  2.910226112261E-01
C36  1.100294242251E-01  2.544743207992E-01 -2.910226112261E-01
C37 -2.998651401168E-01 -2.084875886564E-01  2.516973772823E-01
C38  2.998651401168E-01  2.084875886564E-01 -2.516973772823E-01
C39 -3.390370867747E-01 -2.528107380991E-01  1.662175968737E-01
C40  3.390370867747E-01  2.528107380991E-01 -1.662175968737E-01
C41 -1.978610825909E-01 -3.428870357869E-01  1.160338706857E-01
C42  1.978610825909E-01  3.428870357869E-01 -1.160338706857E-01
C43 -7.323192272744E-03 -3.886716075791E-01  1.554769110972E-01
C44  7.323192272744E-03  3.886716075791E-01 -1.554769110972E-01
C45  3.006925083255E-02 -3.426378064757E-01  2.427958624696E-01
C46 -3.006925083255E-02  3.426378064757E-01 -2.427958624696E-01
C47 -2.362863670116E-01 -3.878539819570E-01  2.983039022676E-02
C48  2.362863670116E-01  3.878539819570E-01 -2.983039022676E-02
C49 -9.537795939701E-02 -4.770950259569E-01 -1.974498624688E-02
C50  9.537795939701E-02  4.770950259569E-01  1.974498624688E-02
C51  1.332306736583E-01 -4.775066193679E-01  1.064574606016E-01
C52 -1.332306736583E-01  4.775066193679E-01 -1.064574606016E-01
H53 -1.122491873545E-01  1.587372893083E-01  3.141213092754E-01
H54  1.122491873545E-01 -1.587372893083E-01 -3.141213092754E-01
H55 -2.206928966775E-02  3.613428936328E-01  4.470044569495E-01
H56  2.206928966775E-02 -3.613428936328E-01 -4.470044569495E-01
H57  3.335511922018E-01 -4.610433164926E-01  4.747094722531E-01
H58 -3.335511922018E-01  4.610433164926E-01 -4.747094722531E-01
H59 -3.993284286910E-01 -4.883393785598E-01  3.700798562438E-01
H60  3.993284286910E-01  4.883393785598E-01 -3.700798562438E-01
H61 -1.110603384591E-02  2.745194965864E-02  1.764559897705E-01
H62  1.110603384591E-02 -2.745194965864E-02 -1.764559897705E-01
H63 -2.960813364445E-01  3.764067202211E-01  2.331250226016E-01
H64  2.960813364445E-01 -3.764067202211E-01 -2.331250226016E-01
H65  9.082756632937E-02 -1.066445623566E-01  3.980342513669E-02
H66 -9.082756632937E-02  1.066445623566E-01 -3.980342513669E-02
H67 -1.933225419773E-01  2.415312799476E-01  9.661675527327E-02
H68  1.933225419773E-01 -2.415312799476E-01 -9.661675527327E-02
H69  4.155485331948E-01 -7.930581747195E-02  2.729339510469E-01
H70 -4.155485331948E-01  7.930581747195E-02 -2.729339510469E-01
H71  4.917987774686E-01  4.234674481922E-04  4.249622207486E-01
H72 -4.917987774686E-01 -4.234674481922E-04 -4.249622207486E-01
H73 -1.837688621734E-01 -8.705250496633E-02  4.940388538943E-01
H74  1.837688621734E-01  8.705250496633E-02 -4.940388538943E-01
H75  7.090313500212E-02 -2.428121545675E-01  4.090648892100E-01
H76 -7.090313500212E-02  2.428121545675E-01 -4.090648892100E-01
H77 -4.833139716939E-01 -2.178347915777E-01  1.363233357237E-01
H78  4.833139716939E-01  2.178347915777E-01 -1.363233357237E-01
H79  1.739240179599E-01 -3.779711794858E-01  2.728493487369E-01
H80 -1.739240179599E-01  3.779711794858E-01 -2.728493487369E-01
H81 -3.806326963245E-01 -3.530657353042E-01 -9.104483965531E-05
H82  3.806326963245E-01  3.530657353042E-01  9.104483965531E-05
H83  2.773511722321E-01  4.874701479720E-01  1.364503083513E-01
H84 -2.773511722321E-01 -4.874701479720E-01 -1.364503083513E-01


#===END

data_OPT_STEP_60

_symmetry_space_group_name_H-M 'P 1'
_cell_length_a      6.48311816
_cell_length_b      7.70995122
_cell_length_c     16.41050587
_cell_angle_alpha   98.328083
_cell_angle_beta   92.661317
_cell_angle_gamma   96.237502

loop_
_atom_site_label
_atom_site_fract_x
_atom_site_fract_y
_atom_site_fract_z
C1  4.391949557534E-02  2.359936529803E-01  3.262830736391E-01
C2 -4.391949557534E-02 -2.359936529803E-01 -3.262830736391E-01
C3  9.386159148244E-02  3.479913166656E-01  3.993464689514E-01
C4 -9.386159148244E-02 -3.479913166656E-01 -3.993464689514E-01
C5  2.967897004747E-01  4.487514397476E-01  4.153078300686E-01
C6 -2.967897004747E-01 -4.487514397476E-01 -4.153078300686E-01
C7  4.446674396351E-01  4.337970731978E-01  3.578729669036E-01
C8 -4.446674396351E-01 -4.337970731978E-01 -3.578729669036E-01
C9  3.997885716583E-01  3.173007270064E-01  2.800890825900E-01
C10 -3.997885716583E-01 -3.173007270064E-01 -2.800890825900E-01
C11  1.934437853350E-01  2.165765698781E-01  2.637267879126E-01
C12 -1.934437853350E-01 -2.165765698781E-01 -2.637267879126E-01
C13  1.458083710104E-01  1.038076943856E-01  1.888603525380E-01
C14 -1.458083710104E-01 -1.038076943856E-01 -1.888603525380E-01
C15  2.943868710336E-01  8.408177676969E-02  1.275608383482E-01
C16 -2.943868710336E-01 -8.408177676969E-02 -1.275608383482E-01
C17 -4.984812182175E-01  1.845733623395E-01  1.440928640289E-01
C18  4.984812182175E-01 -1.845733623395E-01 -1.440928640289E-01
C19 -4.528453383711E-01  2.997899921462E-01  2.206586870067E-01
C20  4.528453383711E-01 -2.997899921462E-01 -2.206586870067E-01
C21  2.477403436664E-01 -3.027641758146E-02  5.220321141229E-02
C22 -2.477403436664E-01  3.027641758146E-02 -5.220321141229E-02
C23  3.962879450835E-01 -5.024021048894E-02 -8.285140758143E-03
C24 -3.962879450835E-01  5.024021048894E-02  8.285140758143E-03
C25 -3.502905628242E-01  1.653114634206E-01  8.411002274373E-02
C26  3.502905628242E-01 -1.653114634206E-01 -8.411002274373E-02
C27 -4.413157096349E-01 -1.157370927303E-01  3.028545004940E-01
C28  4.413157096349E-01  1.157370927303E-01 -3.028545004940E-01
C29 -3.995888690641E-01 -7.330205724253E-02  3.868354234744E-01
C30  3.995888690641E-01  7.330205724253E-02 -3.868354234744E-01
C31 -2.139649772470E-01 -1.211170292867E-01  4.260293983562E-01
C32  2.139649772470E-01  1.211170292867E-01 -4.260293983562E-01
C33 -7.374594413548E-02 -2.074471181894E-01  3.796144194860E-01
C34  7.374594413548E-02  2.074471181894E-01 -3.796144194860E-01
C35 -1.100563141032E-01 -2.544554388341E-01  2.910268233427E-01
C36  1.100563141032E-01  2.544554388341E-01 -2.910268233427E-01
C37 -2.998834140865E-01 -2.084707726657E-01  2.516906931227E-01
C38  2.998834140865E-01  2.084707726657E-01 -2.516906931227E-01
C39 -3.390439627539E-01 -2.527957645599E-01  1.662057748333E-01
C40  3.390439627539E-01  2.527957645599E-01 -1.662057748333E-01
C41 -1.978636258135E-01 -3.428720057995E-01  1.160273311591E-01
C42  1.978636258135E-01  3.428720057995E-01 -1.160273311591E-01
C43 -7.331422395050E-03 -3.886502795425E-01  1.554814760094E-01
C44  7.331422395050E-03  3.886502795425E-01 -1.554814760094E-01
C45  3.005073077833E-02 -3.426112045382E-01  2.428052040312E-01
C46 -3.005073077833E-02  3.426112045382E-01 -2.428052040312E-01
C47 -2.362863271423E-01 -3.878546050159E-01  2.981939760674E-02
C48  2.362863271423E-01  3.878546050159E-01 -2.981939760674E-02
C49 -9.538216931571E-02 -4.771084596535E-01 -1.975000063729E-02
C50  9.538216931571E-02  4.771084596535E-01  1.975000063729E-02
C51  1.332254108809E-01 -4.774861557671E-01  1.064675055419E-01
C52 -1.332254108809E-01  4.774861557671E-01 -1.064675055419E-01
H53 -1.122517170655E-01  1.587333590860E-01  3.141149338824E-01
H54  1.122517170655E-01 -1.587333590860E-01 -3.141149338824E-01
H55 -2.210151964120E-02  3.613903188502E-01  4.469911801061E-01
H56  2.210151964120E-02 -3.613903188502E-01 -4.469911801061E-01
H57  3.335323892885E-01 -4.609852947648E-01  4.747110884031E-01
H58 -3.335323892885E-01  4.609852947648E-01 -4.747110884031E-01
H59 -3.993322773539E-01 -4.883072194583E-01  3.700926543002E-01
H60  3.993322773539E-01  4.883072194583E-01 -3.700926543002E-01
H61 -1.111110745109E-02  2.744483858688E-02  1.764489067245E-01
H62  1.111110745109E-02 -2.744483858688E-02 -1.764489067245E-01
H63 -2.960801484924E-01  3.764299164047E-01  2.331362968367E-01
H64  2.960801484924E-01 -3.764299164047E-01 -2.331362968367E-01
H65  9.081805017364E-02 -1.066483123106E-01  3.979291773664E-02
H66 -9.081805017364E-02  1.066483123106E-01 -3.979291773664E-02
H67 -1.933235503254E-01  2.415566778109E-01  9.662471629910E-02
H68  1.933235503254E-01 -2.415566778109E-01 -9.662471629910E-02
H69  4.155292263713E-01 -7.929430217986E-02  2.729148717932E-01
H70 -4.155292263713E-01  7.929430217986E-02 -2.729148717932E-01
H71  4.917567440033E-01  4.384288463656E-04  4.249499892071E-01
H72 -4.917567440033E-01 -4.384288463655E-04 -4.249499892071E-01
H73 -1.838219387265E-01 -8.703761693655E-02  4.940467360385E-01
H74  1.838219387265E-01  8.703761693655E-02 -4.940467360385E-01
H75  7.086051541105E-02 -2.427819170376E-01  4.090804913360E-01
H76 -7.086051541105E-02  2.427819170376E-01 -4.090804913360E-01
H77 -4.833201577712E-01 -2.178281780111E-01  1.363039215832E-01
H78  4.833201577712E-01  2.178281780111E-01 -1.363039215832E-01
H79  1.738977156986E-01 -3.779452880237E-01  2.728668539444E-01
H80 -1.738977156986E-01  3.779452880237E-01 -2.728668539444E-01
H81 -3.806320305178E-01 -3.530747131552E-01 -1.098094376645E-04
H82  3.806320305178E-01  3.530747131552E-01  1.098094376645E-04
H83  2.773467876790E-01  4.875022024915E-01  1.364679122300E-01
H84 -2.773467876790E-01 -4.875022024915E-01 -1.364679122300E-01


#===END

data_OPT_STEP_61

_symmetry_space_group_name_H-M 'P 1'
_cell_length_a      6.48266594
_cell_length_b      7.71069496
_cell_length_c     16.41131540
_cell_angle_alpha   98.333937
_cell_angle_beta   92.660435
_cell_angle_gamma   96.236290

loop_
_atom_site_label
_atom_site_fract_x
_atom_site_fract_y
_atom_site_fract_z
C1  4.391970520709E-02  2.359649532707E-01  3.262925573086E-01
C2 -4.391970520709E-02 -2.359649532707E-01 -3.262925573086E-01
C3  9.386280532711E-02  3.479678006389E-01  3.993532692243E-01
C4 -9.386280532711E-02 -3.479678006389E-01 -3.993532692243E-01
C5  2.967904961948E-01  4.487442790547E-01  4.153077922968E-01
C6 -2.967904961948E-01 -4.487442790547E-01 -4.153077922968E-01
C7  4.446698532559E-01  4.337927004428E-01  3.578710434785E-01
C8 -4.446698532559E-01 -4.337927004428E-01 -3.578710434785E-01
C9  3.997906486296E-01  3.172886914613E-01  2.800902634371E-01
C10 -3.997906486296E-01 -3.172886914613E-01 -2.800902634371E-01
C11  1.934432816186E-01  2.165534412631E-01  2.637329319521E-01
C12 -1.934432816186E-01 -2.165534412631E-01 -2.637329319521E-01
C13  1.458059311804E-01  1.037835036673E-01  1.888678021719E-01
C14 -1.458059311804E-01 -1.037835036673E-01 -1.888678021719E-01
C15  2.943857779180E-01  8.406585230311E-02  1.275653054969E-01
C16 -2.943857779180E-01 -8.406585230311E-02 -1.275653054969E-01
C17 -4.984788036438E-01  1.845654908710E-01  1.440934385763E-01
C18  4.984788036438E-01 -1.845654908710E-01 -1.440934385763E-01
C19 -4.528407504224E-01  2.997813757768E-01  2.206582479274E-01
C20  4.528407504224E-01 -2.997813757768E-01 -2.206582479274E-01
C21  2.477361896266E-01 -3.028722796788E-02  5.220743950927E-02
C22 -2.477361896266E-01  3.028722796788E-02 -5.220743950927E-02
C23  3.962862754328E-01 -5.024384564165E-02 -8.283386692581E-03
C24 -3.962862754328E-01  5.024384564165E-02  8.283386692581E-03
C25 -3.502871164619E-01  1.653128454393E-01  8.410769216499E-02
C26  3.502871164619E-01 -1.653128454393E-01 -8.410769216499E-02
C27 -4.413472593168E-01 -1.157491838588E-01  3.028567427422E-01
C28  4.413472593168E-01  1.157491838588E-01 -3.028567427422E-01
C29 -3.996227121800E-01 -7.331961938637E-02  3.868355909176E-01
C30  3.996227121800E-01  7.331961938637E-02 -3.868355909176E-01
C31 -2.139837694303E-01 -1.211248003652E-01  4.260246682665E-01
C32  2.139837694303E-01  1.211248003652E-01 -4.260246682665E-01
C33 -7.375773852017E-02 -2.074541492798E-01  3.796085382640E-01
C34  7.375773852017E-02  2.074541492798E-01 -3.796085382640E-01
C35 -1.100682879643E-01 -2.544617889799E-01  2.910230934887E-01
C36  1.100682879643E-01  2.544617889799E-01 -2.910230934887E-01
C37 -2.999018298887E-01 -2.084734213572E-01  2.516908189252E-01
C38  2.999018298887E-01  2.084734213572E-01 -2.516908189252E-01
C39 -3.390624168504E-01 -2.527962190206E-01  1.662082071440E-01
C40  3.390624168504E-01  2.527962190206E-01 -1.662082071440E-01
C41 -1.978753446264E-01 -3.428729669544E-01  1.160283422093E-01
C42  1.978753446264E-01  3.428729669544E-01 -1.160283422093E-01
C43 -7.333263951625E-03 -3.886501006893E-01  1.554785179593E-01
C44  7.333263951625E-03  3.886501006893E-01 -1.554785179593E-01
C45  3.004518876564E-02 -3.426178316703E-01  2.428001380535E-01
C46 -3.004518876564E-02  3.426178316703E-01 -2.428001380535E-01
C47 -2.362992164430E-01 -3.878557348070E-01  2.982280191390E-02
C48  2.362992164430E-01  3.878557348070E-01 -2.982280191390E-02
C49 -9.538904821216E-02 -4.771120233566E-01 -1.974783605834E-02
C50  9.538904821216E-02  4.771120233566E-01  1.974783605834E-02
C51  1.332336849830E-01 -4.774814594105E-01  1.064629767245E-01
C52 -1.332336849830E-01  4.774814594105E-01 -1.064629767245E-01
H53 -1.122528344489E-01  1.586958641246E-01  3.141286922733E-01
H54  1.122528344489E-01 -1.586958641246E-01 -3.141286922733E-01
H55 -2.210542248326E-02  3.613718025340E-01  4.469979688427E-01
H56  2.210542248326E-02 -3.613718025340E-01 -4.469979688427E-01
H57  3.335307821752E-01 -4.609824851998E-01  4.747076675838E-01
H58 -3.335307821752E-01  4.609824851998E-01 -4.747076675838E-01
H59 -3.993271993460E-01 -4.883048779675E-01  3.700873891345E-01
H60  3.993271993460E-01  4.883048779675E-01 -3.700873891345E-01
H61 -1.111483266629E-02  2.741028643701E-02  1.764597532786E-01
H62  1.111483266629E-02 -2.741028643701E-02 -1.764597532786E-01
H63 -2.960678293328E-01  3.764187774623E-01  2.331353348728E-01
H64  2.960678293328E-01 -3.764187774623E-01 -2.331353348728E-01
H65  9.080630629317E-02 -1.066556409637E-01  3.979712001677E-02
H66 -9.080630629317E-02  1.066556409637E-01 -3.979712001677E-02
H67 -1.933173750533E-01  2.415637988668E-01  9.661960887388E-02
H68  1.933173750533E-01 -2.415637988668E-01 -9.661960887388E-02
H69  4.154809033190E-01 -7.932096414282E-02  2.729206846704E-01
H70 -4.154809033190E-01  7.932096414282E-02 -2.729206846704E-01
H71  4.917055885781E-01  4.013921470236E-04  4.249533138294E-01
H72 -4.917055885781E-01 -4.013921470236E-04 -4.249533138294E-01
H73 -1.838414556202E-01 -8.704718204515E-02  4.940404632384E-01
H74  1.838414556202E-01  8.704718204515E-02 -4.940404632384E-01
H75  7.086207295222E-02 -2.427790595857E-01  4.090718686805E-01
H76 -7.086207295222E-02  2.427790595857E-01 -4.090718686805E-01
H77 -4.833524281971E-01 -2.178388035455E-01  1.363095056809E-01
H78  4.833524281971E-01  2.178388035455E-01 -1.363095056809E-01
H79  1.739041086859E-01 -3.779442654120E-01  2.728584288076E-01
H80 -1.739041086859E-01  3.779442654120E-01 -2.728584288076E-01
H81 -3.806565138504E-01 -3.530830085345E-01 -1.032707643914E-04
H82  3.806565138504E-01  3.530830085345E-01  1.032707643914E-04
H83  2.773703026646E-01  4.875199763601E-01  1.364600272794E-01
H84 -2.773703026646E-01 -4.875199763601E-01 -1.364600272794E-01


#===END

data_OPT_STEP_62

_symmetry_space_group_name_H-M 'P 1'
_cell_length_a      6.48176678
_cell_length_b      7.71229156
_cell_length_c     16.41283918
_cell_angle_alpha   98.344128
_cell_angle_beta   92.659405
_cell_angle_gamma   96.234727

loop_
_atom_site_label
_atom_site_fract_x
_atom_site_fract_y
_atom_site_fract_z
C1  4.392159884053E-02  2.358996676052E-01  3.263110733344E-01
C2 -4.392159884053E-02 -2.358996676052E-01 -3.263110733344E-01
C3  9.385079671444E-02  3.479417559653E-01  3.993587284164E-01
C4 -9.385079671444E-02 -3.479417559653E-01 -3.993587284164E-01
C5  2.967973191888E-01  4.487176182979E-01  4.153060998561E-01
C6 -2.967973191888E-01 -4.487176182979E-01 -4.153060998561E-01
C7  4.446887448015E-01  4.337565790399E-01  3.578693849955E-01
C8 -4.446887448015E-01 -4.337565790399E-01 -3.578693849955E-01
C9  3.998057611723E-01  3.172426348418E-01  2.800944660512E-01
C10 -3.998057611723E-01 -3.172426348418E-01 -2.800944660512E-01
C11  1.934470059053E-01  2.164946280122E-01  2.637461998251E-01
C12 -1.934470059053E-01 -2.164946280122E-01 -2.637461998251E-01
C13  1.458042323306E-01  1.037257104033E-01  1.888842180845E-01
C14 -1.458042323306E-01 -1.037257104033E-01 -1.888842180845E-01
C15  2.943851048227E-01  8.403136653575E-02  1.275743327810E-01
C16 -2.943851048227E-01 -8.403136653575E-02 -1.275743327810E-01
C17 -4.984665345822E-01  1.845389128233E-01  1.440957347570E-01
C18  4.984665345822E-01 -1.845389128233E-01 -1.440957347570E-01
C19 -4.528215679655E-01  2.997461602341E-01  2.206589847868E-01
C20  4.528215679655E-01 -2.997461602341E-01 -2.206589847868E-01
C21  2.477281091528E-01 -3.031108774722E-02  5.221667274621E-02
C22 -2.477281091528E-01  3.031108774722E-02 -5.221667274621E-02
C23  3.962824179807E-01 -5.025134754601E-02 -8.279512414937E-03
C24 -3.962824179807E-01  5.025134754601E-02  8.279512414937E-03
C25 -3.502793645729E-01  1.653186903454E-01  8.410107308169E-02
C26  3.502793645729E-01 -1.653186903454E-01 -8.410107308169E-02
C27 -4.413938592625E-01 -1.157867432172E-01  3.028628180571E-01
C28  4.413938592625E-01  1.157867432172E-01 -3.028628180571E-01
C29 -3.996489802693E-01 -7.334219259171E-02  3.868352215565E-01
C30  3.996489802693E-01  7.334219259171E-02 -3.868352215565E-01
C31 -2.139753758391E-01 -1.211255645596E-01  4.260145577523E-01
C32  2.139753758391E-01  1.211255645596E-01 -4.260145577523E-01
C33 -7.372977220996E-02 -2.074367776168E-01  3.795949307730E-01
C34  7.372977220996E-02  2.074367776168E-01 -3.795949307730E-01
C35 -1.100650603731E-01 -2.544662546187E-01  2.910154678883E-01
C36  1.100650603731E-01  2.544662546187E-01 -2.910154678883E-01
C37 -2.999313278576E-01 -2.084979205130E-01  2.516927691122E-01
C38  2.999313278576E-01  2.084979205130E-01 -2.516927691122E-01
C39 -3.391093952290E-01 -2.528331363872E-01  1.662156658549E-01
C40  3.391093952290E-01  2.528331363872E-01 -1.662156658549E-01
C41 -1.979021943140E-01 -3.428946422120E-01  1.160312978086E-01
C42  1.979021943140E-01  3.428946422120E-01 -1.160312978086E-01
C43 -7.345815522370E-03 -3.886765795849E-01  1.554743843838E-01
C44  7.345815522370E-03  3.886765795849E-01 -1.554743843838E-01
C45  3.005081967431E-02 -3.426292863693E-01  2.427899717067E-01
C46 -3.005081967431E-02  3.426292863693E-01 -2.427899717067E-01
C47 -2.363234165795E-01 -3.878648469715E-01  2.982950667567E-02
C48  2.363234165795E-01  3.878648469715E-01 -2.982950667567E-02
C49 -9.538814482105E-02 -4.770992917494E-01 -1.974498698379E-02
C50  9.538814482105E-02  4.770992917494E-01  1.974498698379E-02
C51  1.332322087352E-01 -4.775035630533E-01  1.064561628476E-01
C52 -1.332322087352E-01  4.775035630533E-01 -1.064561628476E-01
H53 -1.122573902939E-01  1.586189131683E-01  3.141552304597E-01
H54  1.122573902939E-01 -1.586189131683E-01 -3.141552304597E-01
H55 -2.211735073806E-02  3.613412509974E-01  4.470078318408E-01
H56  2.211735073806E-02 -3.613412509974E-01 -4.470078318408E-01
H57  3.335426420301E-01 -4.610002213665E-01  4.747002121336E-01
H58 -3.335426420301E-01  4.610002213665E-01 -4.747002121336E-01
H59 -3.992938095950E-01 -4.883430466703E-01  3.700810802948E-01
H60  3.992938095950E-01  4.883430466703E-01 -3.700810802948E-01
H61 -1.112591761539E-02  2.734346183217E-02  1.764805205509E-01
H62  1.112591761539E-02 -2.734346183217E-02 -1.764805205509E-01
H63 -2.960359463732E-01  3.763840767723E-01  2.331323426818E-01
H64  2.960359463732E-01 -3.763840767723E-01 -2.331323426818E-01
H65  9.078676245899E-02 -1.066819698974E-01  3.980943901713E-02
H66 -9.078676245899E-02  1.066819698974E-01 -3.980943901713E-02
H67 -1.933105138236E-01  2.415963522996E-01  9.660195394111E-02
H68  1.933105138236E-01 -2.415963522996E-01 -9.660195394111E-02
H69  4.153994650378E-01 -7.938917140324E-02  2.729344498574E-01
H70 -4.153994650378E-01  7.938917140324E-02 -2.729344498574E-01
H71  4.916477144935E-01  3.391179975295E-04  4.249601519628E-01
H72 -4.916477144935E-01 -3.391179975295E-04 -4.249601519628E-01
H73 -1.838188128681E-01 -8.703649189145E-02  4.940254983219E-01
H74  1.838188128681E-01  8.703649189145E-02 -4.940254983219E-01
H75  7.092571648086E-02 -2.427328927458E-01  4.090499840536E-01
H76 -7.092571648086E-02  2.427328927458E-01 -4.090499840536E-01
H77 -4.834096865366E-01 -2.178694411866E-01  1.363220138545E-01
H78  4.834096865366E-01  2.178694411866E-01 -1.363220138545E-01
H79  1.739348946795E-01 -3.779411299511E-01  2.728399975315E-01
H80 -1.739348946795E-01  3.779411299511E-01 -2.728399975315E-01
H81 -3.806987237027E-01 -3.530971834410E-01 -9.030605339222E-05
H82  3.806987237027E-01  3.530971834410E-01  9.030605339222E-05
H83  2.773909088821E-01  4.875098624567E-01  1.364464306387E-01
H84 -2.773909088821E-01 -4.875098624567E-01 -1.364464306387E-01


#===END

data_OPT_STEP_63

_symmetry_space_group_name_H-M 'P 1'
_cell_length_a      6.47952682
_cell_length_b      7.71485959
_cell_length_c     16.41698270
_cell_angle_alpha   98.367011
_cell_angle_beta   92.653052
_cell_angle_gamma   96.229136

loop_
_atom_site_label
_atom_site_fract_x
_atom_site_fract_y
_atom_site_fract_z
C1  4.390842163526E-02  2.358188481395E-01  3.263406330573E-01
C2 -4.390842163526E-02 -2.358188481395E-01 -3.263406330573E-01
C3  9.386461223791E-02  3.478521214082E-01  3.993788015711E-01
C4 -9.386461223791E-02 -3.478521214082E-01 -3.993788015711E-01
C5  2.968280965925E-01  4.486887815924E-01  4.152944138282E-01
C6 -2.968280965925E-01 -4.486887815924E-01 -4.152944138282E-01
C7  4.447250145464E-01  4.337595347634E-01  3.578436527413E-01
C8 -4.447250145464E-01 -4.337595347634E-01 -3.578436527413E-01
C9  3.998316903472E-01  3.172208828368E-01  2.800837236257E-01
C10 -3.998316903472E-01 -3.172208828368E-01 -2.800837236257E-01
C11  1.934412559256E-01  2.164341919321E-01  2.637619628505E-01
C12 -1.934412559256E-01 -2.164341919321E-01 -2.637619628505E-01
C13  1.457848831668E-01  1.036515935639E-01  1.889134866761E-01
C14 -1.457848831668E-01 -1.036515935639E-01 -1.889134866761E-01
C15  2.943774630623E-01  8.398898864645E-02  1.275896225467E-01
C16 -2.943774630623E-01 -8.398898864645E-02 -1.275896225467E-01
C17 -4.984314337594E-01  1.845142913184E-01  1.440895949518E-01
C18  4.984314337594E-01 -1.845142913184E-01 -1.440895949518E-01
C19 -4.527711098345E-01  2.997275633655E-01  2.206421047613E-01
C20  4.527711098345E-01 -2.997275633655E-01 -2.206421047613E-01
C21  2.476920867482E-01 -3.033779197134E-02  5.223799332536E-02
C22 -2.476920867482E-01  3.033779197134E-02 -5.223799332536E-02
C23  3.962604301159E-01 -5.025833859359E-02 -8.269583590460E-03
C24 -3.962604301159E-01  5.025833859359E-02  8.269583590460E-03
C25 -3.502245135039E-01  1.653090770814E-01  8.408553809299E-02
C26  3.502245135039E-01 -1.653090770814E-01 -8.408553809299E-02
C27 -4.414696025877E-01 -1.158021740476E-01  3.028815147801E-01
C28  4.414696025877E-01  1.158021740476E-01 -3.028815147801E-01
C29 -3.997232919158E-01 -7.339203524155E-02  3.868390963318E-01
C30  3.997232919158E-01  7.339203524155E-02 -3.868390963318E-01
C31 -2.139834818599E-01 -1.211705037578E-01  4.259891745958E-01
C32  2.139834818599E-01  1.211705037578E-01 -4.259891745958E-01
C33 -7.370444732070E-02 -2.074804541584E-01  3.795586391613E-01
C34  7.370444732070E-02  2.074804541584E-01 -3.795586391613E-01
C35 -1.100605306425E-01 -2.545026529880E-01  2.909936983915E-01
C36  1.100605306425E-01  2.545026529880E-01 -2.909936983915E-01
C37 -2.999693759614E-01 -2.085041352076E-01  2.516991208151E-01
C38  2.999693759614E-01  2.085041352076E-01 -2.516991208151E-01
C39 -3.391558023308E-01 -2.528069120675E-01  1.662367960163E-01
C40  3.391558023308E-01  2.528069120675E-01 -1.662367960163E-01
C41 -1.979304836659E-01 -3.428877696414E-01  1.160409420228E-01
C42  1.979304836659E-01  3.428877696414E-01 -1.160409420228E-01
C43 -7.324892541339E-03 -3.886929177872E-01  1.554556291602E-01
C44  7.324892541339E-03  3.886929177872E-01 -1.554556291602E-01
C45  3.007833940913E-02 -3.426775181067E-01  2.427571361509E-01
C46 -3.007833940913E-02  3.426775181067E-01 -2.427571361509E-01
C47 -2.363775113699E-01 -3.878511098138E-01  2.985567216382E-02
C48  2.363775113699E-01  3.878511098138E-01 -2.985567216382E-02
C49 -9.542444661688E-02 -4.771045088126E-01 -1.972941415053E-02
C50  9.542444661688E-02  4.771045088126E-01  1.972941415053E-02
C51  1.332914926452E-01 -4.775093625777E-01  1.064248725558E-01
C52 -1.332914926452E-01  4.775093625777E-01 -1.064248725558E-01
H53 -1.123035452135E-01  1.585313895115E-01  3.142010003288E-01
H54  1.123035452135E-01 -1.585313895115E-01 -3.142010003288E-01
H55 -2.213240775584E-02  3.612807431743E-01  4.470273795871E-01
H56  2.213240775584E-02 -3.612807431743E-01 -4.470273795871E-01
H57  3.335743478739E-01 -4.609954191736E-01  4.746722817653E-01
H58 -3.335743478739E-01  4.609954191736E-01 -4.746722817653E-01
H59 -3.992325867586E-01 -4.883209476656E-01  3.700376254844E-01
H60  3.992325867586E-01  4.883209476656E-01 -3.700376254844E-01
H61 -1.116783142874E-02  2.724003560320E-02  1.765266728409E-01
H62  1.116783142874E-02 -2.724003560320E-02 -1.765266728409E-01
H63 -2.959398108912E-01  3.763485402658E-01  2.331079653508E-01
H64  2.959398108912E-01 -3.763485402658E-01 -2.331079653508E-01
H65  9.071380182974E-02 -1.067074247665E-01  3.984132921837E-02
H66 -9.071380182974E-02  1.067074247665E-01 -3.984132921837E-02
H67 -1.932129598789E-01  2.415798270293E-01  9.657430338649E-02
H68  1.932129598789E-01 -2.415798270293E-01 -9.657430338649E-02
H69  4.152739558104E-01 -7.941324309957E-02  2.729729784577E-01
H70 -4.152739558104E-01  7.941324309957E-02 -2.729729784577E-01
H71  4.915253527125E-01  2.595460113930E-04  4.249743457927E-01
H72 -4.915253527125E-01 -2.595460113930E-04 -4.249743457927E-01
H73 -1.837918085038E-01 -8.706121602115E-02  4.939863403065E-01
H74  1.837918085038E-01  8.706121602115E-02 -4.939863403065E-01
H75  7.101066630304E-02 -2.427558246990E-01  4.089926169509E-01
H76 -7.101066630304E-02  2.427558246990E-01 -4.089926169509E-01
H77 -4.835086444484E-01 -2.178506654559E-01  1.363639926503E-01
H78  4.835086444484E-01  2.178506654559E-01 -1.363639926503E-01
H79  1.740179173065E-01 -3.779800780138E-01  2.727838858152E-01
H80 -1.740179173065E-01  3.779800780138E-01 -2.727838858152E-01
H81 -3.808010976347E-01 -3.530827341612E-01 -4.256097306614E-05
H82  3.808010976347E-01  3.530827341612E-01  4.256097306614E-05
H83  2.775187635740E-01  4.875334441414E-01  1.363918004140E-01
H84 -2.775187635740E-01 -4.875334441414E-01 -1.363918004140E-01


#===END

data_OPT_STEP_64

_symmetry_space_group_name_H-M 'P 1'
_cell_length_a      6.47564008
_cell_length_b      7.72198967
_cell_length_c     16.42010329
_cell_angle_alpha   98.399140
_cell_angle_beta   92.659793
_cell_angle_gamma   96.226928

loop_
_atom_site_label
_atom_site_fract_x
_atom_site_fract_y
_atom_site_fract_z
C1  4.384200177706E-02  2.356142206526E-01  3.263736396290E-01
C2 -4.384200177706E-02 -2.356142206526E-01 -3.263736396290E-01
C3  9.376858220817E-02  3.477599906718E-01  3.993771638193E-01
C4 -9.376858220817E-02 -3.477599906718E-01 -3.993771638193E-01
C5  2.967844667728E-01  4.486578614785E-01  4.152656165660E-01
C6 -2.967844667728E-01 -4.486578614785E-01 -4.152656165660E-01
C7  4.447583704821E-01  4.336799786200E-01  3.578249971554E-01
C8 -4.447583704821E-01 -4.336799786200E-01 -3.578249971554E-01
C9  3.998560623437E-01  3.171071183569E-01  2.800816360370E-01
C10 -3.998560623437E-01 -3.171071183569E-01 -2.800816360370E-01
C11  1.934075296961E-01  2.162558980476E-01  2.637833776199E-01
C12 -1.934075296961E-01 -2.162558980476E-01 -2.637833776199E-01
C13  1.457117264218E-01  1.035057874165E-01  1.889365832296E-01
C14 -1.457117264218E-01 -1.035057874165E-01 -1.889365832296E-01
C15  2.943413954490E-01  8.389176467026E-02  1.276033897950E-01
C16 -2.943413954490E-01 -8.389176467026E-02 -1.276033897950E-01
C17 -4.983983722995E-01  1.844566238751E-01  1.440858034542E-01
C18  4.983983722995E-01 -1.844566238751E-01 -1.440858034542E-01
C19 -4.527072581344E-01  2.996507172582E-01  2.206341997696E-01
C20  4.527072581344E-01 -2.996507172582E-01 -2.206341997696E-01
C21  2.476263699598E-01 -3.041245498855E-02  5.225719431336E-02
C22 -2.476263699598E-01  3.041245498855E-02 -5.225719431336E-02
C23  3.962196183090E-01 -5.026572815222E-02 -8.263998850051E-03
C24 -3.962196183090E-01  5.026572815222E-02  8.263998850051E-03
C25 -3.501715218919E-01  1.653331466255E-01  8.406562996089E-02
C26  3.501715218919E-01 -1.653331466255E-01 -8.406562996089E-02
C27 -4.417100288046E-01 -1.159169760665E-01  3.028524436554E-01
C28  4.417100288046E-01  1.159169760665E-01 -3.028524436554E-01
C29 -3.999592158432E-01 -7.352056788094E-02  3.868073835947E-01
C30  3.999592158432E-01  7.352056788094E-02 -3.868073835947E-01
C31 -2.140833440685E-01 -1.212036272574E-01  4.259541077666E-01
C32  2.140833440685E-01  1.212036272574E-01 -4.259541077666E-01
C33 -7.373868400094E-02 -2.074853720269E-01  3.795301613355E-01
C34  7.373868400094E-02  2.074853720269E-01 -3.795301613355E-01
C35 -1.101248228669E-01 -2.545373392642E-01  2.909709443210E-01
C36  1.101248228669E-01  2.545373392642E-01 -2.909709443210E-01
C37 -3.001031597245E-01 -2.085354671410E-01  2.516712436105E-01
C38  3.001031597245E-01  2.085354671410E-01 -2.516712436105E-01
C39 -3.393246591871E-01 -2.528707609461E-01  1.662159454020E-01
C40  3.393246591871E-01  2.528707609461E-01 -1.662159454020E-01
C41 -1.980378277776E-01 -3.429341553343E-01  1.160273508160E-01
C42  1.980378277776E-01  3.429341553343E-01 -1.160273508160E-01
C43 -7.358299954928E-03 -3.887325790549E-01  1.554473036852E-01
C44  7.358299954928E-03  3.887325790549E-01 -1.554473036852E-01
C45  3.005953967393E-02 -3.427155015491E-01  2.427442257593E-01
C46 -3.005953967393E-02  3.427155015491E-01 -2.427442257593E-01
C47 -2.364689830897E-01 -3.878587070286E-01  2.984448356647E-02
C48  2.364689830897E-01  3.878587070286E-01 -2.984448356647E-02
C49 -9.544044538340E-02 -4.770787823473E-01 -1.973380153885E-02
C50  9.544044538340E-02  4.770787823473E-01  1.973380153885E-02
C51  1.332981970226E-01 -4.775628172548E-01  1.064269139123E-01
C52 -1.332981970226E-01  4.775628172548E-01 -1.064269139123E-01
H53 -1.123785314187E-01  1.582225306749E-01  3.142683853859E-01
H54  1.123785314187E-01 -1.582225306749E-01 -3.142683853859E-01
H55 -2.224287544410E-02  3.611532652161E-01  4.470392279363E-01
H56  2.224287544410E-02 -3.611532652161E-01 -4.470392279363E-01
H57  3.335697045281E-01 -4.610344560960E-01  4.746364894919E-01
H58 -3.335697045281E-01  4.610344560960E-01 -4.746364894919E-01
H59 -3.991406701860E-01 -4.883889800001E-01  3.700096162481E-01
H60  3.991406701860E-01  4.883889800001E-01 -3.700096162481E-01
H61 -1.126000438189E-02  2.700449280846E-02  1.765733045804E-01
H62  1.126000438189E-02 -2.700449280846E-02 -1.765733045804E-01
H63 -2.958376319595E-01  3.763179827112E-01  2.330865587002E-01
H64  2.958376319595E-01 -3.763179827112E-01 -2.330865587002E-01
H65  9.058997672512E-02 -1.067960563105E-01  3.986591129679E-02
H66 -9.058997672512E-02  1.067960563105E-01 -3.986591129679E-02
H67 -1.931190263401E-01  2.416536571009E-01  9.653683837646E-02
H68  1.931190263401E-01 -2.416536571009E-01 -9.653683837646E-02
H69  4.149490654381E-01 -7.958388884784E-02  2.729460636247E-01
H70 -4.149490654381E-01  7.958388884784E-02 -2.729460636247E-01
H71  4.911841256269E-01  2.313336453082E-05  4.249488245335E-01
H72 -4.911841256269E-01 -2.313336453077E-05 -4.249488245335E-01
H73 -1.839308971122E-01 -8.717336884171E-02  4.939524947882E-01
H74  1.839308971122E-01  8.717336884171E-02 -4.939524947882E-01
H75  7.106659713069E-02 -2.426894128864E-01  4.089680558631E-01
H76 -7.106659713069E-02  2.426894128864E-01 -4.089680558631E-01
H77 -4.837453893691E-01 -2.179403552092E-01  1.363423724758E-01
H78  4.837453893691E-01  2.179403552092E-01 -1.363423724758E-01
H79  1.740807022803E-01 -3.779648697845E-01  2.727668606678E-01
H80 -1.740807022803E-01  3.779648697845E-01 -2.727668606678E-01
H81 -3.809453267208E-01 -3.530936619549E-01 -5.502981233180E-05
H82  3.809453267208E-01  3.530936619549E-01  5.502981233180E-05
H83  2.775671575253E-01  4.874789149638E-01  1.363956707424E-01
H84 -2.775671575253E-01 -4.874789149638E-01 -1.363956707424E-01


#===END

data_OPT_STEP_65

_symmetry_space_group_name_H-M 'P 1'
_cell_length_a      6.46732424
_cell_length_b      7.72535337
_cell_length_c     16.44099213
_cell_angle_alpha   98.485829
_cell_angle_beta   92.614189
_cell_angle_gamma   96.184585

loop_
_atom_site_label
_atom_site_fract_x
_atom_site_fract_y
_atom_site_fract_z
C1  4.379324287225E-02  2.352937278192E-01  3.264891171333E-01
C2 -4.379324287225E-02 -2.352937278192E-01 -3.264891171333E-01
C3  9.382264472114E-02  3.473945845979E-01  3.994537962596E-01
C4 -9.382264472114E-02 -3.473945845979E-01 -3.994537962596E-01
C5  2.970049480769E-01  4.482793809730E-01  4.152602421811E-01
C6 -2.970049480769E-01 -4.482793809730E-01 -4.152602421811E-01
C7  4.450173314419E-01  4.333677276481E-01  3.577733273627E-01
C8 -4.450173314419E-01 -4.333677276481E-01 -3.577733273627E-01
C9  4.000545288606E-01  3.167714335750E-01  2.800834042427E-01
C10 -4.000545288606E-01 -3.167714335750E-01 -2.800834042427E-01
C11  1.933704102083E-01  2.160361893258E-01  2.638354629272E-01
C12 -1.933704102083E-01 -2.160361893258E-01 -2.638354629272E-01
C13  1.456207422569E-01  1.032799080994E-01  1.890362639770E-01
C14 -1.456207422569E-01 -1.032799080994E-01 -1.890362639770E-01
C15  2.942987404265E-01  8.374275256512E-02  1.276570384991E-01
C16 -2.942987404265E-01 -8.374275256512E-02 -1.276570384991E-01
C17 -4.982896282142E-01  1.843194361511E-01  1.440582126099E-01
C18  4.982896282142E-01 -1.843194361511E-01 -1.440582126099E-01
C19 -4.524691202749E-01  2.993885805545E-01  2.205917699959E-01
C20  4.524691202749E-01 -2.993885805545E-01 -2.205917699959E-01
C21  2.475194060762E-01 -3.052130674639E-02  5.234932682734E-02
C22 -2.475194060762E-01  3.052130674639E-02 -5.234932682734E-02
C23  3.962052210215E-01 -5.037551823754E-02 -8.197364111466E-03
C24 -3.962052210215E-01  5.037551823754E-02  8.197364111466E-03
C25 -3.500218618638E-01  1.652910118893E-01  8.398850652532E-02
C26  3.500218618638E-01 -1.652910118893E-01 -8.398850652532E-02
C27 -4.420229049022E-01 -1.160163273737E-01  3.030072730288E-01
C28  4.420229049022E-01  1.160163273737E-01 -3.030072730288E-01
C29 -4.000954478210E-01 -7.362669215891E-02  3.868616722773E-01
C30  4.000954478210E-01  7.362669215891E-02 -3.868616722773E-01
C31 -2.140138700824E-01 -1.214931775850E-01  4.258294546034E-01
C32  2.140138700824E-01  1.214931775850E-01 -4.258294546034E-01
C33 -7.350593061935E-02 -2.077546874559E-01  3.793227177028E-01
C34  7.350593061935E-02  2.077546874559E-01 -3.793227177028E-01
C35 -1.100548486134E-01 -2.547828046266E-01  2.908572679885E-01
C36  1.100548486134E-01  2.547828046266E-01 -2.908572679885E-01
C37 -3.003733813018E-01 -2.087747115845E-01  2.517517395005E-01
C38  3.003733813018E-01  2.087747115845E-01 -2.517517395005E-01
C39 -3.396557355278E-01 -2.529365157730E-01  1.663869449770E-01
C40  3.396557355278E-01  2.529365157730E-01 -1.663869449770E-01
C41 -1.981960817781E-01 -3.429530253889E-01  1.161109327672E-01
C42  1.981960817781E-01  3.429530253889E-01 -1.161109327672E-01
C43 -7.320276565310E-03 -3.889753670199E-01  1.553488386542E-01
C44  7.320276565310E-03  3.889753670199E-01 -1.553488386542E-01
C45  3.022981319789E-02 -3.430304541023E-01  2.425518167264E-01
C46 -3.022981319789E-02  3.430304541023E-01 -2.425518167264E-01
C47 -2.366900895953E-01 -3.877035780779E-01  3.001775537009E-02
C48  2.366900895953E-01  3.877035780779E-01 -3.001775537009E-02
C49 -9.550157193675E-02 -4.769106135119E-01 -1.964552923315E-02
C50  9.550157193675E-02  4.769106135119E-01  1.964552923315E-02
C51  1.334633338024E-01 -4.778446246500E-01  1.062468048598E-01
C52 -1.334633338024E-01  4.778446246500E-01 -1.062468048598E-01
H53 -1.125526601110E-01  1.579210624194E-01  3.144506056345E-01
H54  1.125526601110E-01 -1.579210624194E-01 -3.144506056345E-01
H55 -2.224468088163E-02  3.608465331392E-01  4.471370796553E-01
H56  2.224468088163E-02 -3.608465331392E-01 -4.471370796553E-01
H57  3.337642573909E-01 -4.612760479301E-01  4.745585737144E-01
H58 -3.337642573909E-01  4.612760479301E-01 -4.745585737144E-01
H59 -3.987671493651E-01 -4.887026404878E-01  3.698974962678E-01
H60  3.987671493651E-01  4.887026404878E-01 -3.698974962678E-01
H61 -1.149381832585E-02  2.682387190070E-02  1.767195915182E-01
H62  1.149381832585E-02 -2.682387190070E-02 -1.767195915182E-01
H63 -2.954438965951E-01  3.759849988521E-01  2.330074057480E-01
H64  2.954438965951E-01 -3.759849988521E-01 -2.330074057480E-01
H65  9.033101471306E-02 -1.068415606244E-01  3.999630793587E-02
H66 -9.033101471306E-02  1.068415606244E-01 -3.999630793587E-02
H67 -1.928560257698E-01  2.416282224161E-01  9.639686074382E-02
H68  1.928560257698E-01 -2.416282224161E-01 -9.639686074382E-02
H69  4.144403672388E-01 -7.961383317848E-02  2.732352809565E-01
H70 -4.144403672388E-01  7.961383317848E-02 -2.732352809565E-01
H71  4.909440677541E-01 -1.084723553393E-04  4.250809912514E-01
H72 -4.909440677541E-01  1.084723553394E-04 -4.250809912514E-01
H73 -1.836892674232E-01 -8.737615972602E-02  4.937472910755E-01
H74  1.836892674232E-01  8.737615972602E-02 -4.937472910755E-01
H75  7.154156065171E-02 -2.429595442124E-01  4.086232965778E-01
H76 -7.154156065171E-02  2.429595442124E-01 -4.086232965778E-01
H77 -4.841795777582E-01 -2.177931225094E-01  1.366369924776E-01
H78  4.841795777582E-01  2.177931225094E-01 -1.366369924776E-01
H79  1.744031868004E-01 -3.784193616791E-01  2.724421668291E-01
H80 -1.744031868004E-01  3.784193616791E-01 -2.724421668291E-01
H81 -3.813006298915E-01 -3.527673879795E-01  2.458257082649E-04
H82  3.813006298915E-01  3.527673879795E-01 -2.458257082649E-04
H83  2.779756346341E-01  4.871939717454E-01  1.360777274118E-01
H84 -2.779756346341E-01 -4.871939717454E-01 -1.360777274118E-01


#===END

data_OPT_STEP_66

_symmetry_space_group_name_H-M 'P 1'
_cell_length_a      6.47355331
_cell_length_b      7.72393079
_cell_length_c     16.42492065
_cell_angle_alpha   98.423973
_cell_angle_beta   92.654381
_cell_angle_gamma   96.219682

loop_
_atom_site_label
_atom_site_fract_x
_atom_site_fract_y
_atom_site_fract_z
C1  4.383352382198E-02  2.355041826973E-01  3.263970213411E-01
C2 -4.383352382198E-02 -2.355041826973E-01 -3.263970213411E-01
C3  9.378751586728E-02  3.476454054364E-01  3.993921173483E-01
C4 -9.378751586728E-02 -3.476454054364E-01 -3.993921173483E-01
C5  2.968410888219E-01  4.485527007119E-01  4.152645538106E-01
C6 -2.968410888219E-01 -4.485527007119E-01 -4.152645538106E-01
C7  4.448072620175E-01  4.336192953718E-01  3.578104927291E-01
C8 -4.448072620175E-01 -4.336192953718E-01 -3.578104927291E-01
C9  3.998941237681E-01  3.170252800912E-01  2.800816442285E-01
C10 -3.998941237681E-01 -3.170252800912E-01 -2.800816442285E-01
C11  1.933971615911E-01  2.161761488290E-01  2.637930434231E-01
C12 -1.933971615911E-01 -2.161761488290E-01 -2.637930434231E-01
C13  1.457011841384E-01  1.034009867324E-01  1.889598622874E-01
C14 -1.457011841384E-01 -1.034009867324E-01 -1.889598622874E-01
C15  2.943332967118E-01  8.383077321534E-02  1.276148446547E-01
C16 -2.943332967118E-01 -8.383077321534E-02 -1.276148446547E-01
C17 -4.983814197121E-01  1.844263328080E-01  1.440803853317E-01
C18  4.983814197121E-01 -1.844263328080E-01 -1.440803853317E-01
C19 -4.526626859233E-01  2.995969473633E-01  2.206266441536E-01
C20  4.526626859233E-01 -2.995969473633E-01 -2.206266441536E-01
C21  2.476083290016E-01 -3.046663631909E-02  5.227529616354E-02
C22 -2.476083290016E-01  3.046663631909E-02 -5.227529616354E-02
C23  3.962260133201E-01 -5.031282731439E-02 -8.247723955083E-03
C24 -3.962260133201E-01  5.031282731439E-02  8.247723955083E-03
C25 -3.501419403810E-01  1.653319884064E-01  8.405295619610E-02
C26  3.501419403810E-01 -1.653319884064E-01 -8.405295619610E-02
C27 -4.417952103215E-01 -1.159592269352E-01  3.028736218198E-01
C28  4.417952103215E-01  1.159592269352E-01 -3.028736218198E-01
C29 -3.999965165523E-01 -7.354807184156E-02  3.868079593854E-01
C30  3.999965165523E-01  7.354807184156E-02 -3.868079593854E-01
C31 -2.140867691994E-01 -1.212806888185E-01  4.259228258392E-01
C32  2.140867691994E-01  1.212806888185E-01 -4.259228258392E-01
C33 -7.369747252630E-02 -2.075370157113E-01  3.794837409775E-01
C34  7.369747252630E-02  2.075370157113E-01 -3.794837409775E-01
C35 -1.101155488277E-01 -2.545805077479E-01  2.909427211604E-01
C36  1.101155488277E-01  2.545805077479E-01 -2.909427211604E-01
C37 -3.001953836281E-01 -2.086246181127E-01  2.516813320844E-01
C38  3.001953836281E-01  2.086246181127E-01 -2.516813320844E-01
C39 -3.394110975723E-01 -2.529012882329E-01  1.662420009992E-01
C40  3.394110975723E-01  2.529012882329E-01 -1.662420009992E-01
C41 -1.980691206777E-01 -3.429268651223E-01  1.160375746902E-01
C42  1.980691206777E-01  3.429268651223E-01 -1.160375746902E-01
C43 -7.369401623852E-03 -3.887980640645E-01  1.554274472672E-01
C44  7.369401623852E-03  3.887980640645E-01 -1.554274472672E-01
C45  3.008414154530E-02 -3.427801416122E-01  2.427048725609E-01
C46 -3.008414154530E-02  3.427801416122E-01 -2.427048725609E-01
C47 -2.365170139612E-01 -3.878285947305E-01  2.987279303203E-02
C48  2.365170139612E-01  3.878285947305E-01 -2.987279303203E-02
C49 -9.545673679861E-02 -4.770510331809E-01 -1.971812510781E-02
C50  9.545673679861E-02  4.770510331809E-01  1.971812510781E-02
C51  1.333336037002E-01 -4.776100632866E-01  1.063933665444E-01
C52 -1.333336037002E-01  4.776100632866E-01 -1.063933665444E-01
H53 -1.124213085339E-01  1.581163639526E-01  3.143036851595E-01
H54  1.124213085339E-01 -1.581163639526E-01 -3.143036851595E-01
H55 -2.223696061857E-02  3.610591639327E-01  4.470563120730E-01
H56  2.223696061857E-02 -3.610591639327E-01 -4.470563120730E-01
H57  3.336069707266E-01 -4.610745154867E-01  4.746125627703E-01
H58 -3.336069707266E-01  4.610745154867E-01 -4.746125627703E-01
H59 -3.990649090853E-01 -4.884410557644E-01  3.699840146018E-01
H60  3.990649090853E-01  4.884410557644E-01 -3.699840146018E-01
H61 -1.131049469950E-02  2.691159247865E-02  1.765999120253E-01
H62  1.131049469950E-02 -2.691159247865E-02 -1.765999120253E-01
H63 -2.957463406798E-01  3.762406758242E-01  2.330794938714E-01
H64  2.957463406798E-01 -3.762406758242E-01 -2.330794938714E-01
H65  9.053550215670E-02 -1.068433936339E-01  3.988666218185E-02
H66 -9.053550215670E-02  1.068433936339E-01 -3.988666218185E-02
H67 -1.930675211262E-01  2.416758551553E-01  9.651213548395E-02
H68  1.930675211262E-01 -2.416758551553E-01 -9.651213548395E-02
H69  4.148099778400E-01 -7.963276816196E-02  2.729928252174E-01
H70 -4.148099778400E-01  7.963276816196E-02 -2.729928252174E-01
H71  4.911160634132E-01 -2.421593418948E-05  4.249649480762E-01
H72 -4.911160634132E-01  2.421593418954E-05 -4.249649480762E-01
H73 -1.838615602949E-01 -8.718286085124E-02  4.939017821380E-01
H74  1.838615602949E-01  8.718286085124E-02 -4.939017821380E-01
H75  7.117581480865E-02 -2.427151098074E-01  4.088953895973E-01
H76 -7.117581480865E-02  2.427151098074E-01 -4.088953895973E-01
H77 -4.838422805158E-01 -2.179129288948E-01  1.363881706266E-01
H78  4.838422805158E-01  2.179129288948E-01 -1.363881706266E-01
H79  1.741296371476E-01 -3.780660276277E-01  2.727047860885E-01
H80 -1.741296371476E-01  3.780660276277E-01 -2.727047860885E-01
H81 -3.810308031265E-01 -3.530457639671E-01 -4.178249638926E-06
H82  3.810308031265E-01  3.530457639671E-01  4.178249638925E-06
H83  2.776685604763E-01  4.874584569522E-01  1.363369156963E-01
H84 -2.776685604763E-01 -4.874584569522E-01 -1.363369156963E-01


#===END

data_OPT_STEP_67

_symmetry_space_group_name_H-M 'P 1'
_cell_length_a      6.47115853
_cell_length_b      7.72753209
_cell_length_c     16.42645093
_cell_angle_alpha   98.435978
_cell_angle_beta   92.654357
_cell_angle_gamma   96.219258

loop_
_atom_site_label
_atom_site_fract_x
_atom_site_fract_y
_atom_site_fract_z
C1  4.374647308985E-02  2.354769385131E-01  3.264078389198E-01
C2 -4.374647308985E-02 -2.354769385131E-01 -3.264078389198E-01
C3  9.372133388343E-02  3.476176437165E-01  3.993921893856E-01
C4 -9.372133388343E-02 -3.476176437165E-01 -3.993921893856E-01
C5  2.968295533246E-01  4.485236597066E-01  4.152482218055E-01
C6 -2.968295533246E-01 -4.485236597066E-01 -4.152482218055E-01
C7  4.448127283567E-01  4.336208472620E-01  3.577834288568E-01
C8 -4.448127283567E-01 -4.336208472620E-01 -3.577834288568E-01
C9  3.998729667981E-01  3.170406279508E-01  2.800616582362E-01
C10 -3.998729667981E-01 -3.170406279508E-01 -2.800616582362E-01
C11  1.933459798430E-01  2.161429457535E-01  2.637998912124E-01
C12 -1.933459798430E-01 -2.161429457535E-01 -2.637998912124E-01
C13  1.456445345520E-01  1.033429599951E-01  1.889823736862E-01
C14 -1.456445345520E-01 -1.033429599951E-01 -1.889823736862E-01
C15  2.942990736460E-01  8.379712635738E-02  1.276261814732E-01
C16 -2.942990736460E-01 -8.379712635738E-02 -1.276261814732E-01
C17 -4.983604596435E-01  1.843961156104E-01  1.440762987729E-01
C18  4.983604596435E-01 -1.843961156104E-01 -1.440762987729E-01
C19 -4.526440063255E-01  2.996012649846E-01  2.206051506736E-01
C20  4.526440063255E-01 -2.996012649846E-01 -2.206051506736E-01
C21  2.475463257139E-01 -3.047658839552E-02  5.228950590488E-02
C22 -2.475463257139E-01  3.047658839552E-02 -5.228950590488E-02
C23  3.961833689112E-01 -5.028830756579E-02 -8.246799541353E-03
C24 -3.961833689112E-01  5.028830756579E-02  8.246799541353E-03
C25 -3.500889676409E-01  1.653130086896E-01  8.404235839798E-02
C26  3.500889676409E-01 -1.653130086896E-01 -8.404235839798E-02
C27 -4.418284670140E-01 -1.159500499494E-01  3.028759497013E-01
C28  4.418284670140E-01  1.159500499494E-01 -3.028759497013E-01
C29 -4.000294266832E-01 -7.357624483944E-02  3.868072033041E-01
C30  4.000294266832E-01  7.357624483944E-02 -3.868072033041E-01
C31 -2.140708516460E-01 -1.213178209357E-01  4.259162311683E-01
C32  2.140708516460E-01  1.213178209357E-01 -4.259162311683E-01
C33 -7.366469416986E-02 -2.075875226847E-01  3.794764346002E-01
C34  7.366469416986E-02  2.075875226847E-01 -3.794764346002E-01
C35 -1.101092456659E-01 -2.546315307592E-01  2.909400073291E-01
C36  1.101092456659E-01  2.546315307592E-01 -2.909400073291E-01
C37 -3.002012595497E-01 -2.086097258282E-01  2.516816103651E-01
C38  3.002012595497E-01  2.086097258282E-01 -2.516816103651E-01
C39 -3.394410313472E-01 -2.528751032515E-01  1.662467023055E-01
C40  3.394410313472E-01  2.528751032515E-01 -1.662467023055E-01
C41 -1.980963751369E-01 -3.429344671907E-01  1.160411951501E-01
C42  1.980963751369E-01  3.429344671907E-01 -1.160411951501E-01
C43 -7.358025052960E-03 -3.888359213737E-01  1.554252201637E-01
C44  7.358025052960E-03  3.888359213737E-01 -1.554252201637E-01
C45  3.010950939510E-02 -3.428394631641E-01  2.427001109130E-01
C46 -3.010950939510E-02  3.428394631641E-01 -2.427001109130E-01
C47 -2.365645196671E-01 -3.878186360582E-01  2.987979524222E-02
C48  2.365645196671E-01  3.878186360582E-01 -2.987979524222E-02
C49 -9.549433638110E-02 -4.770617338126E-01 -1.971349893372E-02
C50  9.549433638110E-02  4.770617338126E-01  1.971349893372E-02
C51  1.333828885324E-01 -4.776281381593E-01  1.063865406647E-01
C52 -1.333828885324E-01  4.776281381593E-01 -1.063865406647E-01
H53 -1.125640116179E-01  1.581117836600E-01  3.143212836452E-01
H54  1.125640116179E-01 -1.581117836600E-01 -3.143212836452E-01
H55 -2.232521770667E-02  3.610289002964E-01  4.470624367793E-01
H56  2.232521770667E-02 -3.610289002964E-01 -4.470624367793E-01
H57  3.336207596206E-01 -4.611151885644E-01  4.745908905176E-01
H58 -3.336207596206E-01  4.611151885643E-01 -4.745908905176E-01
H59 -3.990205276267E-01 -4.884315707671E-01  3.699438246733E-01
H60  3.990205276267E-01  4.884315707671E-01 -3.699438246733E-01
H61 -1.141668645060E-02  2.686416837094E-02  1.766309149987E-01
H62  1.141668645060E-02 -2.686416837094E-02 -1.766309149987E-01
H63 -2.956841881975E-01  3.762465412865E-01  2.330467079095E-01
H64  2.956841881975E-01 -3.762465412865E-01 -2.330467079095E-01
H65  9.044734781746E-02 -1.068872093326E-01  3.991904370779E-02
H66 -9.044734781746E-02  1.068872093326E-01 -3.991904370779E-02
H67 -1.929863586021E-01  2.416877230887E-01  9.648434893898E-02
H68  1.929863586021E-01 -2.416877230887E-01 -9.648434893898E-02
H69  4.147411283184E-01 -7.961407039979E-02  2.729996101882E-01
H70 -4.147411283184E-01  7.961407039979E-02 -2.729996101882E-01
H71  4.910558772412E-01 -4.740629531363E-05  4.249595242573E-01
H72 -4.910558772412E-01  4.740629531369E-05 -4.249595242573E-01
H73 -1.837792786888E-01 -8.715845669832E-02  4.938871187377E-01
H74  1.837792786888E-01  8.715845669832E-02 -4.938871187377E-01
H75  7.124733031447E-02 -2.427736182547E-01  4.088838292479E-01
H76 -7.124733031447E-02  2.427736182547E-01 -4.088838292479E-01
H77 -4.838982540948E-01 -2.178580465782E-01  1.363969234414E-01
H78  4.838982540948E-01  2.178580465782E-01 -1.363969234414E-01
H79  1.741751497234E-01 -3.781595508532E-01  2.726958475062E-01
H80 -1.741751497234E-01  3.781595508532E-01 -2.726958475062E-01
H81 -3.811048821180E-01 -3.530073805051E-01  7.398964296014E-06
H82  3.811048821180E-01  3.530073805051E-01 -7.398964296015E-06
H83  2.777465072073E-01  4.874172866670E-01  1.363250195451E-01
H84 -2.777465072073E-01 -4.874172866670E-01 -1.363250195451E-01


#===END

data_OPT_STEP_68

_symmetry_space_group_name_H-M 'P 1'
_cell_length_a      6.46836575
_cell_length_b      7.72905025
_cell_length_c     16.43085096
_cell_angle_alpha   98.454203
_cell_angle_beta   92.647390
_cell_angle_gamma   96.208913

loop_
_atom_site_label
_atom_site_fract_x
_atom_site_fract_y
_atom_site_fract_z
C1  4.371899968005E-02  2.354253598293E-01  3.264359579657E-01
C2 -4.371899968005E-02 -2.354253598293E-01 -3.264359579657E-01
C3  9.372258160589E-02  3.475597380087E-01  3.994081077457E-01
C4 -9.372258160589E-02 -3.475597380087E-01 -3.994081077457E-01
C5  2.968694107259E-01  4.485108072714E-01  4.152328798744E-01
C6 -2.968694107259E-01 -4.485108072714E-01 -4.152328798744E-01
C7  4.448982507669E-01  4.335900640017E-01  3.577638894801E-01
C8 -4.448982507669E-01 -4.335900640017E-01 -3.577638894801E-01
C9  3.999454039219E-01  3.169826332533E-01  2.800596220957E-01
C10 -3.999454039219E-01 -3.169826332533E-01 -2.800596220957E-01
C11  1.933300708988E-01  2.161289121201E-01  2.638110284009E-01
C12 -1.933300708988E-01 -2.161289121201E-01 -2.638110284009E-01
C13  1.455860766683E-01  1.033495256479E-01  1.890021440889E-01
C14 -1.455860766683E-01 -1.033495256479E-01 -1.890021440889E-01
C15  2.942793123660E-01  8.378362412137E-02  1.276398467293E-01
C16 -2.942793123660E-01 -8.378362412137E-02 -1.276398467293E-01
C17 -4.983065350080E-01  1.843654653319E-01  1.440693663388E-01
C18  4.983065350080E-01 -1.843654653319E-01 -1.440693663388E-01
C19 -4.525478444714E-01  2.995498293198E-01  2.205911152870E-01
C20  4.525478444714E-01 -2.995498293198E-01 -2.205911152870E-01
C21  2.474891074117E-01 -3.048075847717E-02  5.231318051815E-02
C22 -2.474891074117E-01  3.048075847717E-02 -5.231318051815E-02
C23  3.961548920755E-01 -5.029471052098E-02 -8.232797820196E-03
C24 -3.961548920755E-01  5.029471052098E-02  8.232797820196E-03
C25 -3.500231020773E-01  1.653090463171E-01  8.401867309758E-02
C26  3.500231020773E-01 -1.653090463171E-01 -8.401867309758E-02
C27 -4.418927362538E-01 -1.159469590428E-01  3.029100084060E-01
C28  4.418927362538E-01  1.159469590428E-01 -3.029100084060E-01
C29 -4.000783379241E-01 -7.362953628299E-02  3.868235621251E-01
C30  4.000783379241E-01  7.362953628299E-02 -3.868235621251E-01
C31 -2.140349833217E-01 -1.213977618760E-01  4.258956538446E-01
C32  2.140349833217E-01  1.213977618760E-01 -4.258956538446E-01
C33 -7.358540490997E-02 -2.076805325608E-01  3.794391112925E-01
C34  7.358540490997E-02  2.076805325608E-01 -3.794391112925E-01
C35 -1.100793403876E-01 -2.547185119797E-01  2.909213951710E-01
C36  1.100793403876E-01  2.547185119797E-01 -2.909213951710E-01
C37 -3.002172092059E-01 -2.086059808184E-01  2.516980358518E-01
C38  3.002172092059E-01  2.086059808184E-01 -2.516980358518E-01
C39 -3.395045785342E-01 -2.528540956667E-01  1.662831436454E-01
C40  3.395045785342E-01  2.528540956667E-01 -1.662831436454E-01
C41 -1.981574548608E-01 -3.429762536550E-01  1.160626724675E-01
C42  1.981574548608E-01  3.429762536550E-01 -1.160626724675E-01
C43 -7.310646941647E-03 -3.888805882130E-01  1.554040745589E-01
C44  7.310646941647E-03  3.888805882130E-01 -1.554040745589E-01
C45  3.017254572361E-02 -3.429466222939E-01  2.426633288063E-01
C46 -3.017254572361E-02  3.429466222939E-01 -2.426633288063E-01
C47 -2.366260386627E-01 -3.877685734722E-01  2.991669224400E-02
C48  2.366260386627E-01  3.877685734722E-01 -2.991669224400E-02
C49 -9.550391035078E-02 -4.769957289899E-01 -1.969607714034E-02
C50  9.550391035078E-02  4.769957289899E-01  1.969607714034E-02
C51  1.334375044577E-01 -4.777231904619E-01  1.063496421320E-01
C52 -1.334375044577E-01  4.777231904619E-01 -1.063496421320E-01
H53 -1.126328092558E-01  1.580501919343E-01  3.143683829723E-01
H54  1.126328092558E-01 -1.580501919343E-01 -3.143683829723E-01
H55 -2.235680888495E-02  3.609894615793E-01  4.470800954846E-01
H56  2.235680888495E-02 -3.609894615793E-01 -4.470800954846E-01
H57  3.336741211381E-01 -4.611247356589E-01  4.745650440474E-01
H58 -3.336741211381E-01  4.611247356589E-01 -4.745650440474E-01
H59 -3.989015494556E-01 -4.884412312795E-01  3.699033265369E-01
H60  3.989015494556E-01  4.884412312795E-01 -3.699033265369E-01
H61 -1.150639822777E-02  2.683997408776E-02  1.766766621874E-01
H62  1.150639822777E-02 -2.683997408776E-02 -1.766766621874E-01
H63 -2.955500395877E-01  3.762100607755E-01  2.330111003352E-01
H64  2.955500395877E-01 -3.762100607755E-01 -2.330111003352E-01
H65  9.034456334957E-02 -1.068949000241E-01  3.996131749238E-02
H66 -9.034456334957E-02  1.068949000241E-01 -3.996131749238E-02
H67 -1.928534807815E-01  2.416472418840E-01  9.645236721218E-02
H68  1.928534807815E-01 -2.416472418840E-01 -9.645236721218E-02
H69  4.146438370421E-01 -7.954338648993E-02  2.730575434740E-01
H70 -4.146438370421E-01  7.954338648993E-02 -2.730575434740E-01
H71  4.909836020112E-01 -7.732500868353E-05  4.249844490749E-01
H72 -4.909836020112E-01  7.732500868359E-05 -4.249844490749E-01
H73 -1.837551054322E-01 -8.730623395158E-02  4.938560850423E-01
H74  1.837551054322E-01  8.730623395158E-02 -4.938560850423E-01
H75  7.137720311215E-02 -2.429107660469E-01  4.088186168205E-01
H76 -7.137720311215E-02  2.429107660469E-01 -4.088186168205E-01
H77 -4.840333622931E-01 -2.178228135011E-01  1.364622015550E-01
H78  4.840333622931E-01  2.178228135011E-01 -1.364622015550E-01
H79  1.743133416189E-01 -3.782758130924E-01  2.726298332743E-01
H80 -1.743133416189E-01  3.782758130924E-01 -2.726298332743E-01
H81 -3.811911493907E-01 -3.528729685753E-01  6.840875915491E-05
H82  3.811911493907E-01  3.528729685753E-01 -6.840875915491E-05
H83  2.778436445851E-01  4.872641916167E-01  1.362618061834E-01
H84 -2.778436445851E-01 -4.872641916167E-01 -1.362618061834E-01


#===END

data_OPT_STEP_69

_symmetry_space_group_name_H-M 'P 1'
_cell_length_a      6.46602203
_cell_length_b      7.73254310
_cell_length_c     16.43077802
_cell_angle_alpha   98.457841
_cell_angle_beta   92.651979
_cell_angle_gamma   96.209660

loop_
_atom_site_label
_atom_site_fract_x
_atom_site_fract_y
_atom_site_fract_z
C1  4.366310539526E-02  2.354240996000E-01  3.264445251756E-01
C2 -4.366310539526E-02 -2.354240996000E-01 -3.264445251756E-01
C3  9.367600457369E-02  3.475861873879E-01  3.994008125773E-01
C4 -9.367600457369E-02 -3.475861873879E-01 -3.994008125773E-01
C5  2.968705772937E-01  4.485578805486E-01  4.152061055309E-01
C6 -2.968705772937E-01 -4.485578805486E-01 -4.152061055309E-01
C7  4.449533182476E-01  4.336018137583E-01  3.577402877697E-01
C8 -4.449533182476E-01 -4.336018137583E-01 -3.577402877697E-01
C9  3.999731711318E-01  3.169977291231E-01  2.800429270162E-01
C10 -3.999731711318E-01 -3.169977291231E-01 -2.800429270162E-01
C11  1.933138578964E-01  2.161146409382E-01  2.638180404371E-01
C12 -1.933138578964E-01 -2.161146409382E-01 -2.638180404371E-01
C13  1.455252875807E-01  1.033607874401E-01  1.890130088832E-01
C14 -1.455252875807E-01 -1.033607874401E-01 -1.890130088832E-01
C15  2.942463655834E-01  8.379440893215E-02  1.276434195336E-01
C16 -2.942463655834E-01 -8.379440893215E-02 -1.276434195336E-01
C17 -4.982823378123E-01  1.843849733093E-01  1.440532922813E-01
C18  4.982823378123E-01 -1.843849733093E-01 -1.440532922813E-01
C19 -4.524905912249E-01  2.995620155743E-01  2.205681215096E-01
C20  4.524905912249E-01 -2.995620155743E-01 -2.205681215096E-01
C21  2.474292699351E-01 -3.048012758001E-02  5.232834922072E-02
C22 -2.474292699351E-01  3.048012758001E-02 -5.232834922072E-02
C23  3.961235565992E-01 -5.029470980581E-02 -8.224002758228E-03
C24 -3.961235565992E-01  5.029470980581E-02  8.224002758228E-03
C25 -3.499567419155E-01  1.653005778426E-01  8.400323517388E-02
C26  3.499567419155E-01 -1.653005778426E-01 -8.400323517388E-02
C27 -4.419780163648E-01 -1.159755998400E-01  3.028959197550E-01
C28  4.419780163648E-01  1.159755998400E-01 -3.028959197550E-01
C29 -4.001616335561E-01 -7.368655110873E-02  3.868137164773E-01
C30  4.001616335561E-01  7.368655110873E-02 -3.868137164773E-01
C31 -2.140674758540E-01 -1.214570545291E-01  4.258950553682E-01
C32  2.140674758540E-01  1.214570545291E-01 -4.258950553682E-01
C33 -7.357696439836E-02 -2.077255292871E-01  3.794427125356E-01
C34  7.357696439836E-02  2.077255292871E-01 -3.794427125356E-01
C35 -1.100542724192E-01 -2.547114445421E-01  2.909186421977E-01
C36  1.100542724192E-01  2.547114445421E-01 -2.909186421977E-01
C37 -3.002643695768E-01 -2.086232340451E-01  2.516882449382E-01
C38  3.002643695768E-01  2.086232340451E-01 -2.516882449382E-01
C39 -3.395295350459E-01 -2.528065757865E-01  1.662664728831E-01
C40  3.395295350459E-01  2.528065757865E-01 -1.662664728831E-01
C41 -1.981352069212E-01 -3.429037935157E-01  1.160497759335E-01
C42  1.981352069212E-01  3.429037935157E-01 -1.160497759335E-01
C43 -7.282682159800E-03 -3.888781631347E-01  1.554039858294E-01
C44  7.282682159800E-03  3.888781631347E-01 -1.554039858294E-01
C45  3.021209665968E-02 -3.429596560024E-01  2.426670151067E-01
C46 -3.021209665968E-02  3.429596560024E-01 -2.426670151067E-01
C47 -2.366493378720E-01 -3.877268520731E-01  2.990400605105E-02
C48  2.366493378720E-01  3.877268520731E-01 -2.990400605105E-02
C49 -9.553473733730E-02 -4.770022564973E-01 -1.969979759386E-02
C50  9.553473733730E-02  4.770022564973E-01  1.969979759386E-02
C51  1.334773306316E-01 -4.777395896275E-01  1.063566172775E-01
C52 -1.334773306316E-01  4.777395896275E-01 -1.063566172775E-01
H53 -1.127116280435E-01  1.580060495062E-01  3.143969299455E-01
H54  1.127116280435E-01 -1.580060495062E-01 -3.143969299455E-01
H55 -2.242623276586E-02  3.610095593064E-01  4.470773321141E-01
H56  2.242623276586E-02 -3.610095593064E-01 -4.470773321141E-01
H57  3.337037905331E-01 -4.610957712612E-01  4.745358377808E-01
H58 -3.337037905331E-01  4.610957712612E-01 -4.745358377808E-01
H59 -3.987976123457E-01 -4.884390511921E-01  3.698713842319E-01
H60  3.987976123457E-01  4.884390511921E-01 -3.698713842319E-01
H61 -1.159839055137E-02  2.682250740477E-02  1.767072538613E-01
H62  1.159839055137E-02 -2.682250740477E-02 -1.767072538613E-01
H63 -2.954508756479E-01  3.762302409637E-01  2.329733854176E-01
H64  2.954508756479E-01 -3.762302409637E-01 -2.329733854176E-01
H65  9.023506655297E-02 -1.068882578938E-01  3.998730326132E-02
H66 -9.023506655297E-02  1.068882578938E-01 -3.998730326132E-02
H67 -1.927205649669E-01  2.415996426865E-01  9.643497234059E-02
H68  1.927205649669E-01 -2.415996426865E-01 -9.643497234059E-02
H69  4.145425879408E-01 -7.953435154373E-02  2.730358511122E-01
H70 -4.145425879408E-01  7.953435154373E-02 -2.730358511122E-01
H71  4.908625496417E-01 -1.452864951972E-04  4.249661259693E-01
H72 -4.908625496417E-01  1.452864951973E-04 -4.249661259693E-01
H73 -1.838253468038E-01 -8.744715949904E-02  4.938623014188E-01
H74  1.838253468038E-01  8.744715949904E-02 -4.938623014188E-01
H75  7.142262650605E-02 -2.429644739226E-01  4.088259880465E-01
H76 -7.142262650605E-02  2.429644739226E-01 -4.088259880465E-01
H77 -4.840953752665E-01 -2.177678723329E-01  1.364397967758E-01
H78  4.840953752665E-01  2.177678723329E-01 -1.364397967758E-01
H79  1.743872478074E-01 -3.782992762318E-01  2.726389776504E-01
H80 -1.743872478074E-01  3.782992762318E-01 -2.726389776504E-01
H81 -3.812605044969E-01 -3.528366519438E-01  5.103682008855E-05
H82  3.812605044969E-01  3.528366519438E-01 -5.103682008855E-05
H83  2.778999671122E-01  4.872109337269E-01  1.362758123397E-01
H84 -2.778999671122E-01 -4.872109337269E-01 -1.362758123397E-01


#===END

data_OPT_STEP_70

_symmetry_space_group_name_H-M 'P 1'
_cell_length_a      6.46557994
_cell_length_b      7.73261966
_cell_length_c     16.43185874
_cell_angle_alpha   98.461781
_cell_angle_beta   92.649264
_cell_angle_gamma   96.205986

loop_
_atom_site_label
_atom_site_fract_x
_atom_site_fract_y
_atom_site_fract_z
C1  4.366471395031E-02  2.354258154774E-01  3.264467851317E-01
C2 -4.366471395031E-02 -2.354258154774E-01 -3.264467851317E-01
C3  9.369703388127E-02  3.475647733366E-01  3.994054932380E-01
C4 -9.369703388127E-02 -3.475647733366E-01 -3.994054932380E-01
C5  2.969107462107E-01  4.485091426700E-01  4.152089865754E-01
C6 -2.969107462107E-01 -4.485091426700E-01 -4.152089865754E-01
C7  4.449739788670E-01  4.335858886788E-01  3.577326245646E-01
C8 -4.449739788670E-01 -4.335858886788E-01 -3.577326245646E-01
C9  3.999789983180E-01  3.170004128476E-01  2.800345893759E-01
C10 -3.999789983180E-01 -3.170004128476E-01 -2.800345893759E-01
C11  1.933194896044E-01  2.161093250568E-01  2.638179879271E-01
C12 -1.933194896044E-01 -2.161093250568E-01 -2.638179879271E-01
C13  1.455374468703E-01  1.033379498240E-01  1.890203246273E-01
C14 -1.455374468703E-01 -1.033379498240E-01 -1.890203246273E-01
C15  2.942504107098E-01  8.378770200508E-02  1.276452043305E-01
C16 -2.942504107098E-01 -8.378770200508E-02 -1.276452043305E-01
C17 -4.982700726141E-01  1.843680592652E-01  1.440511162156E-01
C18  4.982700726141E-01 -1.843680592652E-01 -1.440511162156E-01
C19 -4.524769804739E-01  2.995491410429E-01  2.205610415953E-01
C20  4.524769804739E-01 -2.995491410429E-01 -2.205610415953E-01
C21  2.474288167099E-01 -3.048236168911E-02  5.233420363333E-02
C22 -2.474288167099E-01  3.048236168911E-02 -5.233420363333E-02
C23  3.961168033795E-01 -5.028383031590E-02 -8.223140563674E-03
C24 -3.961168033795E-01  5.028383031590E-02  8.223140563674E-03
C25 -3.499448924153E-01  1.652856110239E-01  8.399843734672E-02
C26  3.499448924153E-01 -1.652856110239E-01 -8.399843734672E-02
C27 -4.419783917427E-01 -1.159621672255E-01  3.029043425479E-01
C28  4.419783917427E-01  1.159621672255E-01 -3.029043425479E-01
C29 -4.001406238512E-01 -7.367503870708E-02  3.868167343742E-01
C30  4.001406238512E-01  7.367503870708E-02 -3.868167343742E-01
C31 -2.140260829081E-01 -1.214541411363E-01  4.258848355926E-01
C32  2.140260829081E-01  1.214541411363E-01 -4.258848355926E-01
C33 -7.353519915468E-02 -2.077273655428E-01  3.794264044353E-01
C34  7.353519915468E-02  2.077273655428E-01 -3.794264044353E-01
C35 -1.100358284482E-01 -2.547166548904E-01  2.909088620248E-01
C36  1.100358284482E-01  2.547166548904E-01 -2.909088620248E-01
C37 -3.002603232368E-01 -2.086126041589E-01  2.516898051321E-01
C38  3.002603232368E-01  2.086126041589E-01 -2.516898051321E-01
C39 -3.395550081198E-01 -2.528181563693E-01  1.662760759739E-01
C40  3.395550081198E-01  2.528181563693E-01 -1.662760759739E-01
C41 -1.981501591071E-01 -3.429093808678E-01  1.160541498603E-01
C42  1.981501591071E-01  3.429093808678E-01 -1.160541498603E-01
C43 -7.286545807771E-03 -3.889025361675E-01  1.553973471173E-01
C44  7.286545807771E-03  3.889025361675E-01 -1.553973471173E-01
C45  3.023523739997E-02 -3.429677141088E-01  2.426523610296E-01
C46 -3.023523739997E-02  3.429677141088E-01 -2.426523610296E-01
C47 -2.366677978022E-01 -3.877198548694E-01  2.991428539914E-02
C48  2.366677978022E-01  3.877198548694E-01 -2.991428539914E-02
C49 -9.554167381799E-02 -4.769948593149E-01 -1.969415830843E-02
C50  9.554167381799E-02  4.769948593149E-01  1.969415830843E-02
C51  1.334788894409E-01 -4.777712366321E-01  1.063460866484E-01
C52 -1.334788894409E-01  4.777712366321E-01 -1.063460866484E-01
H53 -1.127049609702E-01  1.579926924542E-01  3.144086346682E-01
H54  1.127049609702E-01 -1.579926924542E-01 -3.144086346682E-01
H55 -2.238766302966E-02  3.609684765458E-01  4.470917420636E-01
H56  2.238766302966E-02 -3.609684765458E-01 -4.470917420636E-01
H57  3.337366167092E-01 -4.611302709663E-01  4.745325532970E-01
H58 -3.337366167092E-01  4.611302709663E-01 -4.745325532970E-01
H59 -3.987634337334E-01 -4.884736775594E-01  3.698630107522E-01
H60  3.987634337334E-01  4.884736775594E-01 -3.698630107522E-01
H61 -1.160431138425E-02  2.682742380645E-02  1.767127921971E-01
H62  1.160431138425E-02 -2.682742380645E-02 -1.767127921971E-01
H63 -2.954349154363E-01  3.762211270926E-01  2.329605480302E-01
H64  2.954349154363E-01 -3.762211270926E-01 -2.329605480302E-01
H65  9.022603265739E-02 -1.068807015754E-01  3.999615802149E-02
H66 -9.022603265739E-02  1.068807015754E-01 -3.999615802149E-02
H67 -1.927361920799E-01  2.416393059544E-01  9.641117945902E-02
H68  1.927361920799E-01 -2.416393059544E-01 -9.641117945902E-02
H69  4.145139390917E-01 -7.953399562404E-02  2.730563411142E-01
H70 -4.145139390917E-01  7.953399562404E-02 -2.730563411142E-01
H71  4.908721098203E-01 -1.627479635925E-04  4.249829848427E-01
H72 -4.908721098203E-01  1.627479635926E-04 -4.249829848427E-01
H73 -1.837463504756E-01 -8.740495606470E-02  4.938444919910E-01
H74  1.837463504756E-01  8.740495606470E-02 -4.938444919910E-01
H75  7.148939017112E-02 -2.429605704124E-01  4.087975392213E-01
H76 -7.148939017112E-02  2.429605704124E-01 -4.087975392213E-01
H77 -4.841108682342E-01 -2.177399221806E-01  1.364563831640E-01
H78  4.841108682342E-01  2.177399221806E-01 -1.364563831640E-01
H79  1.743962627387E-01 -3.783522835974E-01  2.726175553946E-01
H80 -1.743962627387E-01  3.783522835974E-01 -2.726175553946E-01
H81 -3.812819459349E-01 -3.528102200070E-01  6.922667277896E-05
H82  3.812819459349E-01  3.528102200070E-01 -6.922667277896E-05
H83  2.779124882123E-01  4.871728596341E-01  1.362566480939E-01
H84 -2.779124882123E-01 -4.871728596341E-01 -1.362566480939E-01


#===END

data_OPT_STEP_71

_symmetry_space_group_name_H-M 'P 1'
_cell_length_a      6.46483912
_cell_length_b      7.73288980
_cell_length_c     16.43340013
_cell_angle_alpha   98.466715
_cell_angle_beta   92.643895
_cell_angle_gamma   96.202352

loop_
_atom_site_label
_atom_site_fract_x
_atom_site_fract_y
_atom_site_fract_z
C1  4.370193144279E-02  2.354051833490E-01  3.264719160631E-01
C2 -4.370193144279E-02 -2.354051833490E-01 -3.264719160631E-01
C3  9.373828700431E-02  3.475695345659E-01  3.994180440940E-01
C4 -9.373828700431E-02 -3.475695345659E-01 -3.994180440940E-01
C5  2.969677697289E-01  4.485085079067E-01  4.152067109239E-01
C6 -2.969677697289E-01 -4.485085079067E-01 -4.152067109239E-01
C7  4.450366216684E-01  4.335670054894E-01  3.577268075243E-01
C8 -4.450366216684E-01 -4.335670054894E-01 -3.577268075243E-01
C9  4.000283452185E-01  3.169756618428E-01  2.800368989960E-01
C10 -4.000283452185E-01 -3.169756618428E-01 -2.800368989960E-01
C11  1.933464906935E-01  2.161000813301E-01  2.638314009380E-01
C12 -1.933464906935E-01 -2.161000813301E-01 -2.638314009380E-01
C13  1.455476772607E-01  1.033333297158E-01  1.890387244169E-01
C14 -1.455476772607E-01 -1.033333297158E-01 -1.890387244169E-01
C15  2.942538855829E-01  8.379114423187E-02  1.276537686137E-01
C16 -2.942538855829E-01 -8.379114423187E-02 -1.276537686137E-01
C17 -4.982514154087E-01  1.843671322835E-01  1.440460040141E-01
C18  4.982514154087E-01 -1.843671322835E-01 -1.440460040141E-01
C19 -4.524443031174E-01  2.995479938019E-01  2.205501931204E-01
C20  4.524443031174E-01 -2.995479938019E-01 -2.205501931204E-01
C21  2.474136145716E-01 -3.046646747620E-02  5.234604927853E-02
C22 -2.474136145716E-01  3.046646747620E-02 -5.234604927853E-02
C23  3.961093492906E-01 -5.028169807054E-02 -8.216046636516E-03
C24 -3.961093492906E-01  5.028169807054E-02  8.216046636516E-03
C25 -3.499282318448E-01  1.652884200745E-01  8.398420614504E-02
C26  3.499282318448E-01 -1.652884200745E-01 -8.398420614504E-02
C27 -4.419418483462E-01 -1.159437334830E-01  3.029301455519E-01
C28  4.419418483462E-01  1.159437334830E-01 -3.029301455519E-01
C29 -4.000837822950E-01 -7.367574883743E-02  3.868337662120E-01
C30  4.000837822950E-01  7.367574883743E-02 -3.868337662120E-01
C31 -2.139499740475E-01 -1.214787771299E-01  4.258810604111E-01
C32  2.139499740475E-01  1.214787771299E-01 -4.258810604111E-01
C33 -7.344078275796E-02 -2.077307157514E-01  3.794100566863E-01
C34  7.344078275796E-02  2.077307157514E-01 -3.794100566863E-01
C35 -1.099830407442E-01 -2.547302291262E-01  2.909030897740E-01
C36  1.099830407442E-01  2.547302291262E-01 -2.909030897740E-01
C37 -3.002317090462E-01 -2.086095735641E-01  2.517051076602E-01
C38  3.002317090462E-01  2.086095735641E-01 -2.517051076602E-01
C39 -3.395463945789E-01 -2.527995807415E-01  1.663004366907E-01
C40  3.395463945789E-01  2.527995807415E-01 -1.663004366907E-01
C41 -1.981432492087E-01 -3.428990866744E-01  1.160673716962E-01
C42  1.981432492087E-01  3.428990866744E-01 -1.160673716962E-01
C43 -7.255260498160E-03 -3.889121243966E-01  1.553900157806E-01
C44  7.255260498160E-03  3.889121243966E-01 -1.553900157806E-01
C45  3.029168533905E-02 -3.429838165103E-01  2.426361732812E-01
C46 -3.029168533905E-02  3.429838165103E-01 -2.426361732812E-01
C47 -2.366848096981E-01 -3.877014023924E-01  2.993591222012E-02
C48  2.366848096981E-01  3.877014023924E-01 -2.993591222012E-02
C49 -9.555840686064E-02 -4.769901695708E-01 -1.968364058968E-02
C50  9.555840686064E-02  4.769901695708E-01  1.968364058968E-02
C51  1.335262408250E-01 -4.777726919930E-01  1.063270411699E-01
C52 -1.335262408250E-01  4.777726919930E-01 -1.063270411699E-01
H53 -1.127109811748E-01  1.580371617195E-01  3.144302916780E-01
H54  1.127109811748E-01 -1.580371617195E-01 -3.144302916780E-01
H55 -2.233199526028E-02  3.609617542308E-01  4.471150748828E-01
H56  2.233199526028E-02 -3.609617542308E-01 -4.471150748828E-01
H57  3.337863125797E-01 -4.611118894960E-01  4.745215930308E-01
H58 -3.337863125797E-01  4.611118894960E-01 -4.745215930308E-01
H59 -3.987007856055E-01 -4.884744407932E-01  3.698422832506E-01
H60  3.987007856055E-01  4.884744407932E-01 -3.698422832506E-01
H61 -1.161496109857E-02  2.684107464335E-02  1.767372245801E-01
H62  1.161496109857E-02 -2.684107464335E-02 -1.767372245801E-01
H63 -2.953713577904E-01  3.761865964481E-01  2.329479127501E-01
H64  2.953713577904E-01 -3.761865964481E-01 -2.329479127501E-01
H65  9.020898070354E-02 -1.068811412205E-01  4.002256387264E-02
H66 -9.020898070354E-02  1.068811412205E-01 -4.002256387264E-02
H67 -1.927019118926E-01  2.416284115116E-01  9.638985815226E-02
H68  1.927019118926E-01 -2.416284115116E-01 -9.638985815226E-02
H69  4.145348617094E-01 -7.949569189150E-02  2.730973285165E-01
H70 -4.145348617094E-01  7.949569189150E-02 -2.730973285165E-01
H71  4.909492477324E-01 -1.405702368388E-04  4.250120629392E-01
H72 -4.909492477324E-01  1.405702368389E-04 -4.250120629392E-01
H73 -1.836317038789E-01 -8.740063374379E-02  4.938317560146E-01
H74  1.836317038789E-01  8.740063374379E-02 -4.938317560146E-01
H75  7.160551146261E-02 -2.429806322163E-01  4.087642132725E-01
H76 -7.160551146261E-02  2.429806322163E-01 -4.087642132725E-01
H77 -4.841284631696E-01 -2.177175598326E-01  1.364966845200E-01
H78  4.841284631696E-01  2.177175598326E-01 -1.364966845200E-01
H79  1.744665206107E-01 -3.783914943146E-01  2.725872676018E-01
H80 -1.744665206107E-01  3.783914943146E-01 -2.725872676018E-01
H81 -3.813246515730E-01 -3.527875848677E-01  1.062786159655E-04
H82  3.813246515730E-01  3.527875848677E-01 -1.062786159655E-04
H83  2.779604914012E-01  4.871298274021E-01  1.362250650505E-01
H84 -2.779604914012E-01 -4.871298274021E-01 -1.362250650505E-01


#===END

data_OPT_STEP_72

_symmetry_space_group_name_H-M 'P 1'
_cell_length_a      6.46483214
_cell_length_b      7.73307856
_cell_length_c     16.43332194
_cell_angle_alpha   98.467609
_cell_angle_beta   92.645564
_cell_angle_gamma   96.202831

loop_
_atom_site_label
_atom_site_fract_x
_atom_site_fract_y
_atom_site_fract_z
C1  4.370647823595E-02  2.354173531487E-01  3.264701204482E-01
C2 -4.370647823595E-02 -2.354173531487E-01 -3.264701204482E-01
C3  9.374980383798E-02  3.475742333856E-01  3.994186924758E-01
C4 -9.374980383798E-02 -3.475742333856E-01 -3.994186924758E-01
C5  2.969732826496E-01  4.485263334965E-01  4.152061635999E-01
C6 -2.969732826496E-01 -4.485263334965E-01 -4.152061635999E-01
C7  4.450361694806E-01  4.335937014919E-01  3.577249033045E-01
C8 -4.450361694806E-01 -4.335937014919E-01 -3.577249033045E-01
C9  4.000303201530E-01  3.169919991290E-01  2.800362086860E-01
C10 -4.000303201530E-01 -3.169919991290E-01 -2.800362086860E-01
C11  1.933491293330E-01  2.161125750819E-01  2.638301150633E-01
C12 -1.933491293330E-01 -2.161125750819E-01 -2.638301150633E-01
C13  1.455510948918E-01  1.033387641396E-01  1.890380760374E-01
C14 -1.455510948918E-01 -1.033387641396E-01 -1.890380760374E-01
C15  2.942596570781E-01  8.378870814810E-02  1.276550492507E-01
C16 -2.942596570781E-01 -8.378870814810E-02 -1.276550492507E-01
C17 -4.982461720639E-01  1.843684769342E-01  1.440478157666E-01
C18  4.982461720639E-01 -1.843684769342E-01 -1.440478157666E-01
C19 -4.524374991561E-01  2.995527105288E-01  2.205524423606E-01
C20  4.524374991561E-01 -2.995527105288E-01 -2.205524423606E-01
C21  2.474174966998E-01 -3.047148682277E-02  5.234644943836E-02
C22 -2.474174966998E-01  3.047148682277E-02 -5.234644943836E-02
C23  3.961105445415E-01 -5.028530168902E-02 -8.215939933103E-03
C24 -3.961105445415E-01  5.028530168902E-02  8.215939933103E-03
C25 -3.499262894560E-01  1.652923175006E-01  8.398551066629E-02
C26  3.499262894560E-01 -1.652923175006E-01 -8.398551066629E-02
C27 -4.419157898261E-01 -1.159240741145E-01  3.029306455043E-01
C28  4.419157898261E-01  1.159240741145E-01 -3.029306455043E-01
C29 -4.000554660283E-01 -7.365693262355E-02  3.868353234754E-01
C30  4.000554660283E-01  7.365693262355E-02 -3.868353234754E-01
C31 -2.139285007606E-01 -1.214703997244E-01  4.258845724018E-01
C32  2.139285007606E-01  1.214703997244E-01 -4.258845724018E-01
C33 -7.343007973709E-02 -2.077334657967E-01  3.794143255466E-01
C34  7.343007973709E-02  2.077334657967E-01 -3.794143255466E-01
C35 -1.099670780046E-01 -2.547195540693E-01  2.909054292597E-01
C36  1.099670780046E-01  2.547195540693E-01 -2.909054292597E-01
C37 -3.002129304086E-01 -2.085958752533E-01  2.517059740816E-01
C38  3.002129304086E-01  2.085958752533E-01 -2.517059740816E-01
C39 -3.395337162470E-01 -2.527914261389E-01  1.663002599718E-01
C40  3.395337162470E-01  2.527914261389E-01 -1.663002599718E-01
C41 -1.981407102112E-01 -3.429024120795E-01  1.160678178977E-01
C42  1.981407102112E-01  3.429024120795E-01 -1.160678178977E-01
C43 -7.250759710606E-03 -3.889108920856E-01  1.553918206283E-01
C44  7.250759710606E-03  3.889108920856E-01 -1.553918206283E-01
C45  3.029772382414E-02 -3.429833181072E-01  2.426393707874E-01
C46 -3.029772382414E-02  3.429833181072E-01 -2.426393707874E-01
C47 -2.366796321988E-01 -3.876988428223E-01  2.993446457082E-02
C48  2.366796321988E-01  3.876988428223E-01 -2.993446457082E-02
C49 -9.555418525224E-02 -4.769851593446E-01 -1.968489245584E-02
C50  9.555418525224E-02  4.769851593446E-01  1.968489245584E-02
C51  1.335267131020E-01 -4.777734235166E-01  1.063294009367E-01
C52 -1.335267131020E-01  4.777734235166E-01 -1.063294009367E-01
H53 -1.126963926802E-01  1.580286274294E-01  3.144320712964E-01
H54  1.126963926802E-01 -1.580286274294E-01 -3.144320712964E-01
H55 -2.231604129212E-02  3.609626570673E-01  4.471165381099E-01
H56  2.231604129212E-02 -3.609626570673E-01 -4.471165381099E-01
H57  3.337900804449E-01 -4.610927798538E-01  4.745218304582E-01
H58 -3.337900804449E-01  4.610927798538E-01 -4.745218304582E-01
H59 -3.986991660609E-01 -4.884497667621E-01  3.698419845589E-01
H60  3.986991660609E-01  4.884497667621E-01 -3.698419845589E-01
H61 -1.160821219983E-02  2.683758274916E-02  1.767375135692E-01
H62  1.160821219983E-02 -2.683758274916E-02 -1.767375135692E-01
H63 -2.953696872573E-01  3.762035695325E-01  2.329482019293E-01
H64  2.953696872573E-01 -3.762035695325E-01 -2.329482019293E-01
H65  9.020995687901E-02 -1.068826704744E-01  4.002090254385E-02
H66 -9.020995687901E-02  1.068826704744E-01 -4.002090254385E-02
H67 -1.926996892346E-01  2.416342567792E-01  9.639191716234E-02
H68  1.926996892346E-01 -2.416342567792E-01 -9.639191716234E-02
H69  4.145614099795E-01 -7.947480698326E-02  2.730967855037E-01
H70 -4.145614099795E-01  7.947480698326E-02 -2.730967855037E-01
H71  4.909811864852E-01 -1.194922335192E-04  4.250134423052E-01
H72 -4.909811864852E-01  1.194922335193E-04 -4.250134423052E-01
H73 -1.836185688240E-01 -8.740814599549E-02  4.938370892868E-01
H74  1.836185688240E-01  8.740814599549E-02 -4.938370892868E-01
H75  7.161410610929E-02 -2.429901730573E-01  4.087690373364E-01
H76 -7.161410610929E-02  2.429901730573E-01 -4.087690373364E-01
H77 -4.841117335221E-01 -2.177029861741E-01  1.364950342613E-01
H78  4.841117335221E-01  2.177029861741E-01 -1.364950342613E-01
H79  1.744738049421E-01 -3.783906808232E-01  2.725915823320E-01
H80 -1.744738049421E-01  3.783906808232E-01 -2.725915823320E-01
H81 -3.813129716794E-01 -3.527755764549E-01  1.028761517109E-04
H82  3.813129716794E-01  3.527755764549E-01 -1.028761517109E-04
H83  2.779668018326E-01  4.871362364510E-01  1.362282287709E-01
H84 -2.779668018326E-01 -4.871362364510E-01 -1.362282287709E-01


#===END

data_OPT_STEP_73

_symmetry_space_group_name_H-M 'P 1'
_cell_length_a      6.46483214
_cell_length_b      7.73307856
_cell_length_c     16.43332194
_cell_angle_alpha   98.467609
_cell_angle_beta   92.645564
_cell_angle_gamma   96.202831

loop_
_atom_site_label
_atom_site_fract_x
_atom_site_fract_y
_atom_site_fract_z
C1  4.370647823595E-02  2.354173531487E-01  3.264701204482E-01
C2 -4.370647823595E-02 -2.354173531487E-01 -3.264701204482E-01
C3  9.374980383798E-02  3.475742333856E-01  3.994186924758E-01
C4 -9.374980383798E-02 -3.475742333856E-01 -3.994186924758E-01
C5  2.969732826496E-01  4.485263334965E-01  4.152061635999E-01
C6 -2.969732826496E-01 -4.485263334965E-01 -4.152061635999E-01
C7  4.450361694806E-01  4.335937014919E-01  3.577249033045E-01
C8 -4.450361694806E-01 -4.335937014919E-01 -3.577249033045E-01
C9  4.000303201530E-01  3.169919991290E-01  2.800362086860E-01
C10 -4.000303201530E-01 -3.169919991290E-01 -2.800362086860E-01
C11  1.933491293330E-01  2.161125750819E-01  2.638301150633E-01
C12 -1.933491293330E-01 -2.161125750819E-01 -2.638301150633E-01
C13  1.455510948918E-01  1.033387641396E-01  1.890380760374E-01
C14 -1.455510948918E-01 -1.033387641396E-01 -1.890380760374E-01
C15  2.942596570781E-01  8.378870814810E-02  1.276550492507E-01
C16 -2.942596570781E-01 -8.378870814810E-02 -1.276550492507E-01
C17 -4.982461720639E-01  1.843684769342E-01  1.440478157666E-01
C18  4.982461720639E-01 -1.843684769342E-01 -1.440478157666E-01
C19 -4.524374991561E-01  2.995527105288E-01  2.205524423606E-01
C20  4.524374991561E-01 -2.995527105288E-01 -2.205524423606E-01
C21  2.474174966998E-01 -3.047148682277E-02  5.234644943836E-02
C22 -2.474174966998E-01  3.047148682277E-02 -5.234644943836E-02
C23  3.961105445415E-01 -5.028530168902E-02 -8.215939933103E-03
C24 -3.961105445415E-01  5.028530168902E-02  8.215939933103E-03
C25 -3.499262894560E-01  1.652923175006E-01  8.398551066629E-02
C26  3.499262894560E-01 -1.652923175006E-01 -8.398551066629E-02
C27 -4.419157898261E-01 -1.159240741145E-01  3.029306455043E-01
C28  4.419157898261E-01  1.159240741145E-01 -3.029306455043E-01
C29 -4.000554660283E-01 -7.365693262355E-02  3.868353234754E-01
C30  4.000554660283E-01  7.365693262355E-02 -3.868353234754E-01
C31 -2.139285007606E-01 -1.214703997244E-01  4.258845724018E-01
C32  2.139285007606E-01  1.214703997244E-01 -4.258845724018E-01
C33 -7.343007973709E-02 -2.077334657967E-01  3.794143255466E-01
C34  7.343007973709E-02  2.077334657967E-01 -3.794143255466E-01
C35 -1.099670780046E-01 -2.547195540693E-01  2.909054292597E-01
C36  1.099670780046E-01  2.547195540693E-01 -2.909054292597E-01
C37 -3.002129304086E-01 -2.085958752533E-01  2.517059740816E-01
C38  3.002129304086E-01  2.085958752533E-01 -2.517059740816E-01
C39 -3.395337162470E-01 -2.527914261389E-01  1.663002599718E-01
C40  3.395337162470E-01  2.527914261389E-01 -1.663002599718E-01
C41 -1.981407102112E-01 -3.429024120795E-01  1.160678178977E-01
C42  1.981407102112E-01  3.429024120795E-01 -1.160678178977E-01
C43 -7.250759710606E-03 -3.889108920856E-01  1.553918206283E-01
C44  7.250759710606E-03  3.889108920856E-01 -1.553918206283E-01
C45  3.029772382414E-02 -3.429833181072E-01  2.426393707874E-01
C46 -3.029772382414E-02  3.429833181072E-01 -2.426393707874E-01
C47 -2.366796321988E-01 -3.876988428223E-01  2.993446457082E-02
C48  2.366796321988E-01  3.876988428223E-01 -2.993446457082E-02
C49 -9.555418525224E-02 -4.769851593446E-01 -1.968489245584E-02
C50  9.555418525224E-02  4.769851593446E-01  1.968489245584E-02
C51  1.335267131020E-01 -4.777734235166E-01  1.063294009367E-01
C52 -1.335267131020E-01  4.777734235166E-01 -1.063294009367E-01
H53 -1.126963926802E-01  1.580286274294E-01  3.144320712964E-01
H54  1.126963926802E-01 -1.580286274294E-01 -3.144320712964E-01
H55 -2.231604129212E-02  3.609626570673E-01  4.471165381099E-01
H56  2.231604129212E-02 -3.609626570673E-01 -4.471165381099E-01
H57  3.337900804449E-01 -4.610927798538E-01  4.745218304582E-01
H58 -3.337900804449E-01  4.610927798538E-01 -4.745218304582E-01
H59 -3.986991660609E-01 -4.884497667621E-01  3.698419845589E-01
H60  3.986991660609E-01  4.884497667621E-01 -3.698419845589E-01
H61 -1.160821219983E-02  2.683758274916E-02  1.767375135692E-01
H62  1.160821219983E-02 -2.683758274916E-02 -1.767375135692E-01
H63 -2.953696872573E-01  3.762035695325E-01  2.329482019293E-01
H64  2.953696872573E-01 -3.762035695325E-01 -2.329482019293E-01
H65  9.020995687901E-02 -1.068826704744E-01  4.002090254385E-02
H66 -9.020995687901E-02  1.068826704744E-01 -4.002090254385E-02
H67 -1.926996892346E-01  2.416342567792E-01  9.639191716234E-02
H68  1.926996892346E-01 -2.416342567792E-01 -9.639191716234E-02
H69  4.145614099795E-01 -7.947480698326E-02  2.730967855037E-01
H70 -4.145614099795E-01  7.947480698326E-02 -2.730967855037E-01
H71  4.909811864852E-01 -1.194922335192E-04  4.250134423052E-01
H72 -4.909811864852E-01  1.194922335193E-04 -4.250134423052E-01
H73 -1.836185688240E-01 -8.740814599549E-02  4.938370892868E-01
H74  1.836185688240E-01  8.740814599549E-02 -4.938370892868E-01
H75  7.161410610929E-02 -2.429901730573E-01  4.087690373364E-01
H76 -7.161410610929E-02  2.429901730573E-01 -4.087690373364E-01
H77 -4.841117335221E-01 -2.177029861741E-01  1.364950342613E-01
H78  4.841117335221E-01  2.177029861741E-01 -1.364950342613E-01
H79  1.744738049421E-01 -3.783906808232E-01  2.725915823320E-01
H80 -1.744738049421E-01  3.783906808232E-01 -2.725915823320E-01
H81 -3.813129716794E-01 -3.527755764549E-01  1.028761517109E-04
H82  3.813129716794E-01  3.527755764549E-01 -1.028761517109E-04
H83  2.779668018326E-01  4.871362364510E-01  1.362282287709E-01
H84 -2.779668018326E-01 -4.871362364510E-01 -1.362282287709E-01


#===END
