###############################################################################
#
#                    CRYSTAL17 CIF FILE
#
###############################################################################

data_OPT_STEP_1

_symmetry_space_group_name_H-M 'P 1'
_cell_length_a      7.90000000
_cell_length_b      6.06000000
_cell_length_c     16.01000000
_cell_angle_alpha  101.900002
_cell_angle_beta  112.599998
_cell_angle_gamma   85.800003

loop_
_atom_site_label
_atom_site_fract_x
_atom_site_fract_y
_atom_site_fract_z
C1  1.484000000000E-01  1.830000000000E-02  4.071000000000E-01
C2 -1.484000000000E-01 -1.830000000000E-02 -4.071000000000E-01
C3 -1.520000000000E-02 -2.634000000000E-01  2.786000000000E-01
C4  1.520000000000E-02  2.634000000000E-01 -2.786000000000E-01
C5  5.190000000000E-02 -1.800000000000E-01  3.706000000000E-01
C6 -5.190000000000E-02  1.800000000000E-01 -3.706000000000E-01
C7  1.707000000000E-01  1.361000000000E-01  3.491000000000E-01
C8 -1.707000000000E-01 -1.361000000000E-01 -3.491000000000E-01
C9  1.030000000000E-01  6.040000000000E-02  2.508000000000E-01
C10 -1.030000000000E-01 -6.040000000000E-02 -2.508000000000E-01
C11  1.274000000000E-01  1.650000000000E-01  1.894000000000E-01
C12 -1.274000000000E-01 -1.650000000000E-01 -1.894000000000E-01
C13  5.720000000000E-02  9.510000000000E-02  9.500000000000E-02
C14 -5.720000000000E-02 -9.510000000000E-02 -9.500000000000E-02
C15  9.250000000000E-02  2.095000000000E-01  3.350000000000E-02
C16 -9.250000000000E-02 -2.095000000000E-01 -3.350000000000E-02
C17 -2.270000000000E-02 -1.227000000000E-01  5.670000000000E-02
C18  2.270000000000E-02  1.227000000000E-01 -5.670000000000E-02
C19 -5.400000000000E-02 -2.325000000000E-01  1.225000000000E-01
C20  5.400000000000E-02  2.325000000000E-01 -1.225000000000E-01
C21  1.500000000000E-02 -1.516000000000E-01  2.149000000000E-01
C22 -1.500000000000E-02  1.516000000000E-01 -2.149000000000E-01
H23  2.020000000000E-01  8.700000000000E-02  4.820000000000E-01
H24 -2.020000000000E-01 -8.700000000000E-02 -4.820000000000E-01
H25 -8.500000000000E-02 -4.270000000000E-01  2.510000000000E-01
H26  8.500000000000E-02  4.270000000000E-01 -2.510000000000E-01
H27  3.300000000000E-02 -2.720000000000E-01  4.200000000000E-01
H28 -3.300000000000E-02  2.720000000000E-01 -4.200000000000E-01
H29  2.460000000000E-01  2.940000000000E-01  3.700000000000E-01
H30 -2.460000000000E-01 -2.940000000000E-01 -3.700000000000E-01
H31  2.020000000000E-01  3.210000000000E-01  2.180000000000E-01
H32 -2.020000000000E-01 -3.210000000000E-01 -2.180000000000E-01
H33  1.620000000000E-01  3.620000000000E-01  6.100000000000E-02
H34 -1.620000000000E-01 -3.620000000000E-01 -6.100000000000E-02
H35 -1.220000000000E-01 -3.950000000000E-01  9.800000000000E-02
H36  1.220000000000E-01  3.950000000000E-01 -9.800000000000E-02
C37 -4.373000000000E-01 -4.267000000000E-01  4.014000000000E-01
C38  4.373000000000E-01  4.267000000000E-01 -4.014000000000E-01
C39 -4.965000000000E-01 -3.195000000000E-01  3.286000000000E-01
C40  4.965000000000E-01  3.195000000000E-01 -3.286000000000E-01
C41 -4.790000000000E-01 -4.124000000000E-01  2.434000000000E-01
C42  4.790000000000E-01  4.124000000000E-01 -2.434000000000E-01
C43  4.582000000000E-01 -2.990000000000E-01  1.686000000000E-01
C44 -4.582000000000E-01  2.990000000000E-01 -1.686000000000E-01
C45  4.810000000000E-01 -3.938000000000E-01  8.460000000000E-02
C46 -4.810000000000E-01  3.938000000000E-01 -8.460000000000E-02
C47  4.231000000000E-01 -2.862000000000E-01  1.000000000000E-02
C48 -4.231000000000E-01  2.862000000000E-01 -1.000000000000E-02
C49 -4.378000000000E-01  3.794000000000E-01  7.540000000000E-02
C50  4.378000000000E-01 -3.794000000000E-01 -7.540000000000E-02
C51 -3.897000000000E-01  2.743000000000E-01  1.483000000000E-01
C52  3.897000000000E-01 -2.743000000000E-01 -1.483000000000E-01
C53 -3.939000000000E-01  3.652000000000E-01  2.342000000000E-01
C54  3.939000000000E-01 -3.652000000000E-01 -2.342000000000E-01
C55 -3.451000000000E-01  2.570000000000E-01  3.094000000000E-01
C56  3.451000000000E-01 -2.570000000000E-01 -3.094000000000E-01
C57 -3.504000000000E-01  3.487000000000E-01  3.925000000000E-01
C58  3.504000000000E-01 -3.487000000000E-01 -3.925000000000E-01
H59 -4.470000000000E-01 -3.390000000000E-01  4.750000000000E-01
H60  4.470000000000E-01  3.390000000000E-01 -4.750000000000E-01
H61  4.470000000000E-01 -1.470000000000E-01  3.350000000000E-01
H62 -4.470000000000E-01  1.470000000000E-01 -3.350000000000E-01
H63  4.010000000000E-01 -1.270000000000E-01  1.780000000000E-01
H64 -4.010000000000E-01  1.270000000000E-01 -1.780000000000E-01
H65  3.620000000000E-01 -1.130000000000E-01  2.000000000000E-02
H66 -3.620000000000E-01  1.130000000000E-01 -2.000000000000E-02
H67 -3.270000000000E-01  1.040000000000E-01  1.420000000000E-01
H68  3.270000000000E-01 -1.040000000000E-01 -1.420000000000E-01
H69 -2.820000000000E-01  8.800000000000E-02  3.040000000000E-01
H70  2.820000000000E-01 -8.800000000000E-02 -3.040000000000E-01
H71 -3.000000000000E-01  2.650000000000E-01  4.530000000000E-01
H72  3.000000000000E-01 -2.650000000000E-01 -4.530000000000E-01


#===END

data_OPT_STEP_2

_symmetry_space_group_name_H-M 'P 1'
_cell_length_a      7.90000000
_cell_length_b      6.06000000
_cell_length_c     16.01000000
_cell_angle_alpha  101.900002
_cell_angle_beta  112.599998
_cell_angle_gamma   85.800003

loop_
_atom_site_label
_atom_site_fract_x
_atom_site_fract_y
_atom_site_fract_z
C1  1.484000000000E-01  1.830000000000E-02  4.071000000000E-01
C2 -1.484000000000E-01 -1.830000000000E-02 -4.071000000000E-01
C3 -1.520000000000E-02 -2.634000000000E-01  2.786000000000E-01
C4  1.520000000000E-02  2.634000000000E-01 -2.786000000000E-01
C5  5.190000000000E-02 -1.800000000000E-01  3.706000000000E-01
C6 -5.190000000000E-02  1.800000000000E-01 -3.706000000000E-01
C7  1.707000000000E-01  1.361000000000E-01  3.491000000000E-01
C8 -1.707000000000E-01 -1.361000000000E-01 -3.491000000000E-01
C9  1.030000000000E-01  6.040000000000E-02  2.508000000000E-01
C10 -1.030000000000E-01 -6.040000000000E-02 -2.508000000000E-01
C11  1.274000000000E-01  1.650000000000E-01  1.894000000000E-01
C12 -1.274000000000E-01 -1.650000000000E-01 -1.894000000000E-01
C13  5.720000000000E-02  9.510000000000E-02  9.500000000000E-02
C14 -5.720000000000E-02 -9.510000000000E-02 -9.500000000000E-02
C15  9.250000000000E-02  2.095000000000E-01  3.350000000000E-02
C16 -9.250000000000E-02 -2.095000000000E-01 -3.350000000000E-02
C17 -2.270000000000E-02 -1.227000000000E-01  5.670000000000E-02
C18  2.270000000000E-02  1.227000000000E-01 -5.670000000000E-02
C19 -5.400000000000E-02 -2.325000000000E-01  1.225000000000E-01
C20  5.400000000000E-02  2.325000000000E-01 -1.225000000000E-01
C21  1.500000000000E-02 -1.516000000000E-01  2.149000000000E-01
C22 -1.500000000000E-02  1.516000000000E-01 -2.149000000000E-01
H23  2.020000000000E-01  8.700000000000E-02  4.820000000000E-01
H24 -2.020000000000E-01 -8.700000000000E-02 -4.820000000000E-01
H25 -8.500000000000E-02 -4.270000000000E-01  2.510000000000E-01
H26  8.500000000000E-02  4.270000000000E-01 -2.510000000000E-01
H27  3.300000000000E-02 -2.720000000000E-01  4.200000000000E-01
H28 -3.300000000000E-02  2.720000000000E-01 -4.200000000000E-01
H29  2.460000000000E-01  2.940000000000E-01  3.700000000000E-01
H30 -2.460000000000E-01 -2.940000000000E-01 -3.700000000000E-01
H31  2.020000000000E-01  3.210000000000E-01  2.180000000000E-01
H32 -2.020000000000E-01 -3.210000000000E-01 -2.180000000000E-01
H33  1.620000000000E-01  3.620000000000E-01  6.100000000000E-02
H34 -1.620000000000E-01 -3.620000000000E-01 -6.100000000000E-02
H35 -1.220000000000E-01 -3.950000000000E-01  9.800000000000E-02
H36  1.220000000000E-01  3.950000000000E-01 -9.800000000000E-02
C37 -4.373000000000E-01 -4.267000000000E-01  4.014000000000E-01
C38  4.373000000000E-01  4.267000000000E-01 -4.014000000000E-01
C39 -4.965000000000E-01 -3.195000000000E-01  3.286000000000E-01
C40  4.965000000000E-01  3.195000000000E-01 -3.286000000000E-01
C41 -4.790000000000E-01 -4.124000000000E-01  2.434000000000E-01
C42  4.790000000000E-01  4.124000000000E-01 -2.434000000000E-01
C43  4.582000000000E-01 -2.990000000000E-01  1.686000000000E-01
C44 -4.582000000000E-01  2.990000000000E-01 -1.686000000000E-01
C45  4.810000000000E-01 -3.938000000000E-01  8.460000000000E-02
C46 -4.810000000000E-01  3.938000000000E-01 -8.460000000000E-02
C47  4.231000000000E-01 -2.862000000000E-01  1.000000000000E-02
C48 -4.231000000000E-01  2.862000000000E-01 -1.000000000000E-02
C49 -4.378000000000E-01  3.794000000000E-01  7.540000000000E-02
C50  4.378000000000E-01 -3.794000000000E-01 -7.540000000000E-02
C51 -3.897000000000E-01  2.743000000000E-01  1.483000000000E-01
C52  3.897000000000E-01 -2.743000000000E-01 -1.483000000000E-01
C53 -3.939000000000E-01  3.652000000000E-01  2.342000000000E-01
C54  3.939000000000E-01 -3.652000000000E-01 -2.342000000000E-01
C55 -3.451000000000E-01  2.570000000000E-01  3.094000000000E-01
C56  3.451000000000E-01 -2.570000000000E-01 -3.094000000000E-01
C57 -3.504000000000E-01  3.487000000000E-01  3.925000000000E-01
C58  3.504000000000E-01 -3.487000000000E-01 -3.925000000000E-01
H59 -4.470000000000E-01 -3.390000000000E-01  4.750000000000E-01
H60  4.470000000000E-01  3.390000000000E-01 -4.750000000000E-01
H61  4.470000000000E-01 -1.470000000000E-01  3.350000000000E-01
H62 -4.470000000000E-01  1.470000000000E-01 -3.350000000000E-01
H63  4.010000000000E-01 -1.270000000000E-01  1.780000000000E-01
H64 -4.010000000000E-01  1.270000000000E-01 -1.780000000000E-01
H65  3.620000000000E-01 -1.130000000000E-01  2.000000000000E-02
H66 -3.620000000000E-01  1.130000000000E-01 -2.000000000000E-02
H67 -3.270000000000E-01  1.040000000000E-01  1.420000000000E-01
H68  3.270000000000E-01 -1.040000000000E-01 -1.420000000000E-01
H69 -2.820000000000E-01  8.800000000000E-02  3.040000000000E-01
H70  2.820000000000E-01 -8.800000000000E-02 -3.040000000000E-01
H71 -3.000000000000E-01  2.650000000000E-01  4.530000000000E-01
H72  3.000000000000E-01 -2.650000000000E-01 -4.530000000000E-01


#===END

data_OPT_STEP_3

_symmetry_space_group_name_H-M 'P 1'
_cell_length_a      7.88725684
_cell_length_b      6.07260671
_cell_length_c     16.02410780
_cell_angle_alpha  101.931588
_cell_angle_beta  112.460265
_cell_angle_gamma   85.695697

loop_
_atom_site_label
_atom_site_fract_x
_atom_site_fract_y
_atom_site_fract_z
C1  1.446292908438E-01  2.127645058165E-02  4.076040998554E-01
C2 -1.446292908438E-01 -2.127645058165E-02 -4.076040998554E-01
C3 -1.456600402351E-02 -2.665940797186E-01  2.792276308246E-01
C4  1.456600402351E-02  2.665940797186E-01 -2.792276308246E-01
C5  5.122086860330E-02 -1.817744979605E-01  3.712402033298E-01
C6 -5.122086860330E-02  1.817744979605E-01 -3.712402033298E-01
C7  1.698254536808E-01  1.383750145425E-01  3.497964656359E-01
C8 -1.698254536808E-01 -1.383750145425E-01 -3.497964656359E-01
C9  1.040838420783E-01  6.042350197216E-02  2.516356989247E-01
C10 -1.040838420783E-01 -6.042350197216E-02 -2.516356989247E-01
C11  1.264530664512E-01  1.693006166953E-01  1.902505055677E-01
C12 -1.264530664512E-01 -1.693006166953E-01 -1.902505055677E-01
C13  6.308615739538E-02  9.263806789998E-02  9.574461025655E-02
C14 -6.308615739538E-02 -9.263806789998E-02 -9.574461025655E-02
C15  9.215417317899E-02  2.113645895636E-01  3.379844648720E-02
C16 -9.215417317899E-02 -2.113645895636E-01 -3.379844648720E-02
C17 -2.709805884967E-02 -1.211574264460E-01  5.699873833102E-02
C18  2.709805884967E-02  1.211574264460E-01 -5.699873833102E-02
C19 -5.374734570371E-02 -2.349292135666E-01  1.227296618740E-01
C20  5.374734570371E-02  2.349292135666E-01 -1.227296618740E-01
C21  1.090248712207E-02 -1.503595681421E-01  2.152556580126E-01
C22 -1.090248712207E-02  1.503595681421E-01 -2.152556580126E-01
H23  1.974882008436E-01  9.000656277053E-02  4.824403270013E-01
H24 -1.974882008436E-01 -9.000656277053E-02 -4.824403270013E-01
H25 -8.494806192057E-02 -4.299415093226E-01  2.516349277048E-01
H26  8.494806192057E-02  4.299415093226E-01 -2.516349277048E-01
H27  3.352820233785E-02 -2.750807537869E-01  4.204538811988E-01
H28 -3.352820233785E-02  2.750807537869E-01 -4.204538811988E-01
H29  2.433913591281E-01  2.982174536127E-01  3.714172705066E-01
H30 -2.433913591281E-01 -2.982174536127E-01 -3.714172705066E-01
H31  1.957038646896E-01  3.301617714896E-01  2.183866242312E-01
H32 -1.957038646896E-01 -3.301617714896E-01 -2.183866242312E-01
H33  1.578773643441E-01  3.683684037856E-01  6.109338882459E-02
H34 -1.578773643441E-01 -3.683684037856E-01 -6.109338882459E-02
H35 -1.207663640124E-01 -3.986189897029E-01  9.789376744015E-02
H36  1.207663640124E-01  3.986189897029E-01 -9.789376744015E-02
C37 -4.367817573641E-01 -4.274080280097E-01  4.016522579164E-01
C38  4.367817573641E-01  4.274080280097E-01 -4.016522579164E-01
C39 -4.961355431101E-01 -3.193497347411E-01  3.290433086563E-01
C40  4.961355431101E-01  3.193497347411E-01 -3.290433086563E-01
C41 -4.810281947270E-01 -4.144029764595E-01  2.430873032689E-01
C42  4.810281947270E-01  4.144029764595E-01 -2.430873032689E-01
C43  4.591344022841E-01 -2.995323304840E-01  1.690219201179E-01
C44 -4.591344022841E-01  2.995323304840E-01 -1.690219201179E-01
C45  4.789415174553E-01 -3.957278286957E-01  8.433652755173E-02
C46 -4.789415174553E-01  3.957278286957E-01 -8.433652755173E-02
C47  4.239287120269E-01 -2.849738184599E-01  1.048317555299E-02
C48 -4.239287120269E-01  2.849738184599E-01 -1.048317555299E-02
C49 -4.408340179892E-01  3.769419633600E-01  7.451975357663E-02
C50  4.408340179892E-01 -3.769419633600E-01 -7.451975357663E-02
C51 -3.884996102957E-01  2.714920743649E-01  1.481966998176E-01
C52  3.884996102957E-01 -2.714920743649E-01 -1.481966998176E-01
C53 -3.997836371045E-01  3.608161243626E-01  2.330064547006E-01
C54  3.997836371045E-01 -3.608161243626E-01 -2.330064547006E-01
C55 -3.418463218240E-01  2.558411348318E-01  3.099523146045E-01
C56  3.418463218240E-01 -2.558411348318E-01 -3.099523146045E-01
C57 -3.526411009551E-01  3.474423481438E-01  3.923030674178E-01
C58  3.526411009551E-01 -3.474423481438E-01 -3.923030674178E-01
H59 -4.455101517454E-01 -3.405059629051E-01  4.743422262498E-01
H60  4.455101517454E-01  3.405059629051E-01 -4.743422262498E-01
H61  4.437405336614E-01 -1.486754771491E-01  3.351972592213E-01
H62 -4.437405336614E-01  1.486754771491E-01 -3.351972592213E-01
H63  3.998279052912E-01 -1.286705611092E-01  1.780798903826E-01
H64 -3.998279052912E-01  1.286705611092E-01 -1.780798903826E-01
H65  3.628780213580E-01 -1.122445586395E-01  2.040423877808E-02
H66 -3.628780213580E-01  1.122445586395E-01 -2.040423877808E-02
H67 -3.247834598413E-01  1.017365115738E-01  1.418459778062E-01
H68  3.247834598413E-01 -1.017365115738E-01 -1.418459778062E-01
H69 -2.749812609991E-01  8.884108326065E-02  3.049424034013E-01
H70  2.749812609991E-01 -8.884108326065E-02 -3.049424034013E-01
H71 -3.014502935759E-01  2.645751822529E-01  4.528479364320E-01
H72  3.014502935759E-01 -2.645751822529E-01 -4.528479364320E-01


#===END

data_OPT_STEP_4

_symmetry_space_group_name_H-M 'P 1'
_cell_length_a      7.87080915
_cell_length_b      6.10830935
_cell_length_c     16.02901488
_cell_angle_alpha  101.397679
_cell_angle_beta  112.552326
_cell_angle_gamma   87.065490

loop_
_atom_site_label
_atom_site_fract_x
_atom_site_fract_y
_atom_site_fract_z
C1  1.372439486875E-01  2.117796781920E-02  4.070910792680E-01
C2 -1.372439486875E-01 -2.117796781920E-02 -4.070910792680E-01
C3 -1.576253203076E-02 -2.736605603243E-01  2.785709664626E-01
C4  1.576253203076E-02  2.736605603243E-01 -2.785709664626E-01
C5  4.764786854328E-02 -1.874439189276E-01  3.705974090892E-01
C6 -4.764786854328E-02  1.874439189276E-01 -3.705974090892E-01
C7  1.618836666477E-01  1.409948285597E-01  3.494724798292E-01
C8 -1.618836666477E-01 -1.409948285597E-01 -3.494724798292E-01
C9  9.734671335024E-02  6.199914863416E-02  2.513092204770E-01
C10 -9.734671335024E-02 -6.199914863416E-02 -2.513092204770E-01
C11  1.178954547200E-01  1.754459233938E-01  1.900665640715E-01
C12 -1.178954547200E-01 -1.754459233938E-01 -1.900665640715E-01
C13  5.788819081484E-02  9.521264389264E-02  9.542769436260E-02
C14 -5.788819081484E-02 -9.521264389264E-02 -9.542769436260E-02
C15  8.683847271790E-02  2.163828900130E-01  3.386189025849E-02
C16 -8.683847271790E-02 -2.163828900130E-01 -3.386189025849E-02
C17 -2.688643582016E-02 -1.228524807419E-01  5.720819931352E-02
C18  2.688643582016E-02  1.228524807419E-01 -5.720819931352E-02
C19 -5.407916596557E-02 -2.393358781298E-01  1.222140159348E-01
C20  5.407916596557E-02  2.393358781298E-01 -1.222140159348E-01
C21  8.440820768629E-03 -1.534698240792E-01  2.149045294778E-01
C22 -8.440820768629E-03  1.534698240792E-01 -2.149045294778E-01
H23  1.882115155420E-01  9.051328023378E-02  4.818953773807E-01
H24 -1.882115155420E-01 -9.051328023378E-02 -4.818953773807E-01
H25 -8.371387575525E-02 -4.396509201611E-01  2.509149901157E-01
H26  8.371387575525E-02  4.396509201611E-01 -2.509149901157E-01
H27  3.052001826978E-02 -2.831076538226E-01  4.194853090710E-01
H28 -3.052001826978E-02  2.831076538226E-01 -4.194853090710E-01
H29  2.352305871329E-01  3.028322890283E-01  3.718385900453E-01
H30 -2.352305871329E-01 -3.028322890283E-01 -3.718385900453E-01
H31  1.847971843194E-01  3.397321793858E-01  2.181251216589E-01
H32 -1.847971843194E-01 -3.397321793858E-01 -2.181251216589E-01
H33  1.493737177201E-01  3.776528610002E-01  6.115365470895E-02
H34 -1.493737177201E-01 -3.776528610002E-01 -6.115365470895E-02
H35 -1.208143790567E-01 -4.045724416317E-01  9.688796675779E-02
H36  1.208143790567E-01  4.045724416317E-01 -9.688796675779E-02
C37 -4.352389111501E-01 -4.294268007458E-01  4.016942286678E-01
C38  4.352389111501E-01  4.294268007458E-01 -4.016942286678E-01
C39 -4.947459242972E-01 -3.225616549339E-01  3.287895222999E-01
C40  4.947459242972E-01  3.225616549339E-01 -3.287895222999E-01
C41 -4.813053083649E-01 -4.171445257725E-01  2.426995457553E-01
C42  4.813053083649E-01  4.171445257725E-01 -2.426995457553E-01
C43  4.585055949439E-01 -3.044914980331E-01  1.682439905838E-01
C44 -4.585055949439E-01  3.044914980331E-01 -1.682439905838E-01
C45  4.782726598770E-01 -3.984268786451E-01  8.387510684657E-02
C46 -4.782726598770E-01  3.984268786451E-01 -8.387510684657E-02
C47  4.228105389491E-01 -2.888909517676E-01  9.628629609221E-03
C48 -4.228105389491E-01  2.888909517676E-01 -9.628629609221E-03
C49 -4.401999021843E-01  3.789804674717E-01  7.493789647068E-02
C50  4.401999021843E-01 -3.789804674717E-01 -7.493789647068E-02
C51 -3.859629849375E-01  2.746350113162E-01  1.493369718887E-01
C52  3.859629849375E-01 -2.746350113162E-01 -1.493369718887E-01
C53 -3.987045201377E-01  3.628743918740E-01  2.336165251449E-01
C54  3.987045201377E-01 -3.628743918740E-01 -2.336165251449E-01
C55 -3.402982931435E-01  2.588117087615E-01  3.109894790372E-01
C56  3.402982931435E-01 -2.588117087615E-01 -3.109894790372E-01
C57 -3.515933516566E-01  3.498631123112E-01  3.930261194636E-01
C58  3.515933516566E-01 -3.498631123112E-01 -3.930261194636E-01
H59 -4.412605259065E-01 -3.433776754088E-01  4.739014929902E-01
H60  4.412605259065E-01  3.433776754088E-01 -4.739014929902E-01
H61  4.475615020090E-01 -1.534511255594E-01  3.349914776109E-01
H62 -4.475615020090E-01  1.534511255594E-01 -3.349914776109E-01
H63  3.995476472895E-01 -1.363107121711E-01  1.767754757844E-01
H64 -3.995476472895E-01  1.363107121711E-01 -1.767754757844E-01
H65  3.614129787518E-01 -1.196019204465E-01  1.876347155587E-02
H66 -3.614129787518E-01  1.196019204465E-01 -1.876347155587E-02
H67 -3.218582887461E-01  1.080813363815E-01  1.435443616658E-01
H68  3.218582887461E-01 -1.080813363815E-01 -1.435443616658E-01
H69 -2.759583993771E-01  9.324519189521E-02  3.059520366431E-01
H70  2.759583993771E-01 -9.324519189521E-02 -3.059520366431E-01
H71 -3.002597544808E-01  2.682830167415E-01  4.537805263305E-01
H72  3.002597544808E-01 -2.682830167415E-01 -4.537805263305E-01


#===END

data_OPT_STEP_5

_symmetry_space_group_name_H-M 'P 1'
_cell_length_a      7.75552329
_cell_length_b      6.18953977
_cell_length_c     16.03662482
_cell_angle_alpha  101.315285
_cell_angle_beta  112.642965
_cell_angle_gamma   86.971970

loop_
_atom_site_label
_atom_site_fract_x
_atom_site_fract_y
_atom_site_fract_z
C1  1.311839101441E-01  2.774947269235E-02  4.075415216666E-01
C2 -1.311839101441E-01 -2.774947269235E-02 -4.075415216666E-01
C3  1.252680326543E-04 -2.843613789540E-01  2.799384442071E-01
C4 -1.252680326544E-04  2.843613789540E-01 -2.799384442071E-01
C5  5.525147696875E-02 -1.930295748676E-01  3.717618040073E-01
C6 -5.525147696875E-02  1.930295748676E-01 -3.717618040073E-01
C7  1.492623233724E-01  1.532183926585E-01  3.495971766721E-01
C8 -1.492623233724E-01 -1.532183926585E-01 -3.495971766721E-01
C9  9.520010866617E-02  6.479313964350E-02  2.518451044211E-01
C10 -9.520010866617E-02 -6.479313964350E-02 -2.518451044211E-01
C11  1.046628531727E-01  1.890949496794E-01  1.899177966299E-01
C12 -1.046628531727E-01 -1.890949496794E-01 -1.899177966299E-01
C13  4.673255120426E-02  1.025095289611E-01  9.482797269276E-02
C14 -4.673255120426E-02 -1.025095289611E-01 -9.482797269276E-02
C15  7.118906770956E-02  2.242486367470E-01  3.305232569393E-02
C16 -7.118906770956E-02 -2.242486367470E-01 -3.305232569393E-02
C17 -1.983737541278E-02 -1.258871189928E-01  5.906685199239E-02
C18  1.983737541278E-02  1.258871189928E-01 -5.906685199239E-02
C19 -3.831338189545E-02 -2.491933960839E-01  1.233318574030E-01
C20  3.831338189545E-02  2.491933960839E-01 -1.233318574030E-01
C21  2.251031588458E-02 -1.618407873186E-01  2.165504226647E-01
C22 -2.251031588458E-02  1.618407873186E-01 -2.165504226647E-01
H23  1.791104898231E-01  9.686645579140E-02  4.823885313125E-01
H24 -1.791104898231E-01 -9.686645579140E-02 -4.823885313125E-01
H25 -5.927508497646E-02 -4.549283123920E-01  2.528464434863E-01
H26  5.927508497646E-02  4.549283123920E-01 -2.528464434863E-01
H27  3.627861529186E-02 -2.882873430520E-01  4.198500907321E-01
H28 -3.627861529186E-02  2.882873430520E-01 -4.198500907321E-01
H29  2.125172760438E-01  3.232331364514E-01  3.741559985227E-01
H30 -2.125172760438E-01 -3.232331364514E-01 -3.741559985227E-01
H31  1.614492865323E-01  3.610989952117E-01  2.165425173464E-01
H32 -1.614492865323E-01 -3.610989952117E-01 -2.165425173464E-01
H33  1.145654621140E-01  4.009706306569E-01  5.870622644871E-02
H34 -1.145654621140E-01 -4.009706306569E-01 -5.870622644871E-02
H35 -9.572002747884E-02 -4.204729828527E-01  9.758856841445E-02
H36  9.572002747884E-02  4.204729828527E-01 -9.758856841445E-02
C37 -4.377209310454E-01 -4.323546496800E-01  4.013036392613E-01
C38  4.377209310454E-01  4.323546496800E-01 -4.013036392613E-01
C39  4.954585275684E-01 -3.269540290571E-01  3.276474724165E-01
C40 -4.954585275684E-01  3.269540290571E-01 -3.276474724165E-01
C41 -4.890580878125E-01 -4.213653702761E-01  2.413360869940E-01
C42  4.890580878125E-01  4.213653702761E-01 -2.413360869940E-01
C43  4.545446011616E-01 -3.081558786270E-01  1.676217786246E-01
C44 -4.545446011616E-01  3.081558786270E-01 -1.676217786246E-01
C45  4.773131144938E-01 -4.000995857074E-01  8.379099781310E-02
C46 -4.773131144938E-01  4.000995857074E-01 -8.379099781310E-02
C47  4.259872725900E-01 -2.868756653276E-01  1.023462599195E-02
C48 -4.259872725900E-01  2.868756653276E-01 -1.023462599195E-02
C49 -4.481499628291E-01  3.758107884407E-01  7.327636174794E-02
C50  4.481499628291E-01 -3.758107884407E-01 -7.327636174794E-02
C51 -3.932464750196E-01  2.683145152008E-01  1.480356740871E-01
C52  3.932464750196E-01 -2.683145152008E-01 -1.480356740871E-01
C53 -4.075592122419E-01  3.596502478952E-01  2.318860597599E-01
C54  4.075592122419E-01 -3.596502478952E-01 -2.318860597599E-01
C55 -3.434917350774E-01  2.557617156934E-01  3.101603730374E-01
C56  3.434917350774E-01 -2.557617156934E-01 -3.101603730374E-01
C57 -3.571945154382E-01  3.500167704992E-01  3.918603481115E-01
C58  3.571945154382E-01 -3.500167704992E-01 -3.918603481115E-01
H59 -4.375904766173E-01 -3.503945783711E-01  4.720019228651E-01
H60  4.375904766173E-01  3.503945783711E-01 -4.720019228651E-01
H61  4.335525539371E-01 -1.612177648266E-01  3.339554238375E-01
H62 -4.335525539371E-01  1.612177648266E-01 -3.339554238375E-01
H63  3.974945581628E-01 -1.401535049267E-01  1.761847264669E-01
H64 -3.974945581628E-01  1.401535049267E-01 -1.761847264669E-01
H65  3.673349506424E-01 -1.183841289362E-01  1.900208876312E-02
H66 -3.673349506424E-01  1.183841289362E-01 -1.900208876312E-02
H67 -3.291759603141E-01  1.032236613197E-01  1.419631064962E-01
H68  3.291759603141E-01 -1.032236613197E-01 -1.419631064962E-01
H69 -2.737561800023E-01  9.443853256058E-02  3.054628889654E-01
H70  2.737561800023E-01 -9.443853256058E-02 -3.054628889654E-01
H71 -3.060069196123E-01  2.681896343518E-01  4.522489963452E-01
H72  3.060069196123E-01 -2.681896343518E-01 -4.522489963452E-01


#===END

data_OPT_STEP_6

_symmetry_space_group_name_H-M 'P 1'
_cell_length_a      7.69298292
_cell_length_b      6.23247079
_cell_length_c     16.00042192
_cell_angle_alpha  100.557511
_cell_angle_beta  112.359852
_cell_angle_gamma   87.470553

loop_
_atom_site_label
_atom_site_fract_x
_atom_site_fract_y
_atom_site_fract_z
C1  1.319106177132E-01  3.067687090806E-02  4.087194710119E-01
C2 -1.319106177132E-01 -3.067687090806E-02 -4.087194710119E-01
C3 -1.286583328919E-02 -2.709934619332E-01  2.822912296504E-01
C4  1.286583328919E-02  2.709934619332E-01 -2.822912296504E-01
C5  5.268362786092E-02 -1.881515242609E-01  3.743892472822E-01
C6 -5.268362786092E-02  1.881515242609E-01 -3.743892472822E-01
C7  1.494989678078E-01  1.570673148708E-01  3.498597757776E-01
C8 -1.494989678078E-01 -1.570673148708E-01 -3.498597757776E-01
C9  1.023782723052E-01  6.302938275423E-02  2.528141131769E-01
C10 -1.023782723052E-01 -6.302938275423E-02 -2.528141131769E-01
C11  1.231076421616E-01  1.803302454289E-01  1.908597346186E-01
C12 -1.231076421616E-01 -1.803302454289E-01 -1.908597346186E-01
C13  5.990039814667E-02  9.692698367029E-02  9.551412966580E-02
C14 -5.990039814667E-02 -9.692698367029E-02 -9.551412966580E-02
C15  9.773162936632E-02  2.028792562954E-01  3.334422380143E-02
C16 -9.773162936632E-02 -2.028792562954E-01 -3.334422380143E-02
C17 -3.249230720484E-02 -1.183522001283E-01  6.023232404429E-02
C18  3.249230720484E-02  1.183522001283E-01 -6.023232404429E-02
C19 -5.637330118469E-02 -2.342368482599E-01  1.243398542392E-01
C20  5.637330118469E-02  2.342368482599E-01 -1.243398542392E-01
C21  1.386800973256E-02 -1.539466568051E-01  2.181075201766E-01
C22 -1.386800973256E-02  1.539466568051E-01 -2.181075201766E-01
H23  1.826600979186E-01  9.560752338210E-02  4.836566322720E-01
H24 -1.826600979186E-01 -9.560752338210E-02 -4.836566322720E-01
H25 -8.277319829556E-02 -4.340766079487E-01  2.555707478908E-01
H26  8.277319829556E-02  4.340766079487E-01 -2.555707478908E-01
H27  3.374516424540E-02 -2.838003161579E-01  4.225955860025E-01
H28 -3.374516424540E-02  2.838003161579E-01 -4.225955860025E-01
H29  2.032318924195E-01  3.342380386747E-01  3.756021386723E-01
H30 -2.032318924195E-01 -3.342380386747E-01 -3.756021386723E-01
H31  1.906416395152E-01  3.441805694845E-01  2.164752866616E-01
H32 -1.906416395152E-01 -3.441805694845E-01 -2.164752866616E-01
H33  1.538722368172E-01  3.719055448844E-01  5.820770598723E-02
H34 -1.538722368172E-01 -3.719055448844E-01 -5.820770598723E-02
H35 -1.223364282956E-01 -4.001493876731E-01  9.842413263920E-02
H36  1.223364282956E-01  4.001493876731E-01 -9.842413263920E-02
C37 -4.340404403517E-01 -4.273449292900E-01  4.026827038276E-01
C38  4.340404403517E-01  4.273449292900E-01 -4.026827038276E-01
C39  4.944576182439E-01 -3.224285297025E-01  3.280809604495E-01
C40 -4.944576182439E-01  3.224285297025E-01 -3.280809604495E-01
C41 -4.884618691022E-01 -4.176461406858E-01  2.417845372262E-01
C42  4.884618691022E-01  4.176461406858E-01 -2.417845372262E-01
C43  4.563415451656E-01 -3.062005381841E-01  1.675301643995E-01
C44 -4.563415451656E-01  3.062005381841E-01 -1.675301643995E-01
C45  4.786166900302E-01 -3.993017085748E-01  8.377695087425E-02
C46 -4.786166900302E-01  3.993017085748E-01 -8.377695087425E-02
C47  4.276993604988E-01 -2.857444748973E-01  9.410917565114E-03
C48 -4.276993604988E-01  2.857444748973E-01 -9.410917565114E-03
C49 -4.530138435641E-01  3.758813263080E-01  7.308714141034E-02
C50  4.530138435641E-01 -3.758813263080E-01 -7.308714141034E-02
C51 -3.999402210661E-01  2.649180111527E-01  1.484437898037E-01
C52  3.999402210661E-01 -2.649180111527E-01 -1.484437898037E-01
C53 -4.153332359675E-01  3.602099320272E-01  2.316736712122E-01
C54  4.153332359675E-01 -3.602099320272E-01 -2.316736712122E-01
C55 -3.477133869146E-01  2.559836439489E-01  3.111387475902E-01
C56  3.477133869146E-01 -2.559836439489E-01 -3.111387475902E-01
C57 -3.593398325915E-01  3.563918549132E-01  3.929214858731E-01
C58  3.593398325915E-01 -3.563918549132E-01 -3.929214858731E-01
H59 -4.359954177346E-01 -3.529758445878E-01  4.703108289882E-01
H60  4.359954177346E-01  3.529758445878E-01 -4.703108289882E-01
H61  4.262557491685E-01 -1.609488573430E-01  3.332809121729E-01
H62 -4.262557491685E-01  1.609488573430E-01 -3.332809121729E-01
H63  3.972715341129E-01 -1.401135275498E-01  1.744261128410E-01
H64 -3.972715341129E-01  1.401135275498E-01 -1.744261128410E-01
H65  3.698920912783E-01 -1.189568180619E-01  1.659979865847E-02
H66 -3.698920912783E-01  1.189568180619E-01 -1.659979865847E-02
H67 -3.356135011261E-01  1.015765590004E-01  1.429152012186E-01
H68  3.356135011261E-01 -1.015765590004E-01 -1.429152012186E-01
H69 -2.722807241802E-01  9.921074505053E-02  3.075671835905E-01
H70  2.722807241802E-01 -9.921074505053E-02 -3.075671835905E-01
H71 -3.084578482516E-01  2.739053442313E-01  4.533333614795E-01
H72  3.084578482516E-01 -2.739053442313E-01 -4.533333614795E-01


#===END

data_OPT_STEP_7

_symmetry_space_group_name_H-M 'P 1'
_cell_length_a      7.67919280
_cell_length_b      6.24032022
_cell_length_c     15.99815247
_cell_angle_alpha  100.645134
_cell_angle_beta  112.387332
_cell_angle_gamma   87.421153

loop_
_atom_site_label
_atom_site_fract_x
_atom_site_fract_y
_atom_site_fract_z
C1  1.319905124065E-01  3.104157965062E-02  4.090629770196E-01
C2 -1.319905124065E-01 -3.104157965062E-02 -4.090629770196E-01
C3 -1.203587855056E-02 -2.710875801383E-01  2.829665225264E-01
C4  1.203587855056E-02  2.710875801383E-01 -2.829665225264E-01
C5  5.204684630105E-02 -1.872017802381E-01  3.750548685791E-01
C6 -5.204684630105E-02  1.872017802381E-01 -3.750548685791E-01
C7  1.511675025124E-01  1.558105985409E-01  3.500357539299E-01
C8 -1.511675025124E-01 -1.558105985409E-01 -3.500357539299E-01
C9  9.644897076396E-02  6.695143057194E-02  2.528370812857E-01
C10 -9.644897076396E-02 -6.695143057194E-02 -2.528370812857E-01
C11  1.212419689911E-01  1.819360579946E-01  1.913001842727E-01
C12 -1.212419689911E-01 -1.819360579946E-01 -1.913001842727E-01
C13  6.416313592877E-02  9.347658786061E-02  9.594046043603E-02
C14 -6.416313592877E-02 -9.347658786061E-02 -9.594046043603E-02
C15  9.201921610854E-02  2.054331838442E-01  3.309457114686E-02
C16 -9.201921610854E-02 -2.054331838442E-01 -3.309457114686E-02
C17 -2.857914107822E-02 -1.221813991575E-01  6.110446052521E-02
C18  2.857914107822E-02  1.221813991575E-01 -6.110446052521E-02
C19 -5.432728829823E-02 -2.360911294367E-01  1.244779330838E-01
C20  5.432728829823E-02  2.360911294367E-01 -1.244779330838E-01
C21  7.370720341430E-03 -1.496284889498E-01  2.181991192503E-01
C22 -7.370720341430E-03  1.496284889498E-01 -2.181991192503E-01
H23  1.763777221183E-01  9.956805721112E-02  4.837738819315E-01
H24 -1.763777221183E-01 -9.956805721112E-02 -4.837738819315E-01
H25 -7.855913575083E-02 -4.362887979739E-01  2.564735016758E-01
H26  7.855913575083E-02  4.362887979739E-01 -2.564735016758E-01
H27  3.262816710467E-02 -2.826642972173E-01  4.230507334490E-01
H28 -3.262816710467E-02  2.826642972173E-01 -4.230507334490E-01
H29  2.028197296635E-01  3.335535590592E-01  3.760331416718E-01
H30 -2.028197296635E-01 -3.335535590592E-01 -3.760331416718E-01
H31  1.852602199011E-01  3.480391189888E-01  2.165332522527E-01
H32 -1.852602199011E-01 -3.480391189888E-01 -2.165332522527E-01
H33  1.523763273724E-01  3.716883484773E-01  5.807080277946E-02
H34 -1.523763273724E-01 -3.716883484773E-01 -5.807080277946E-02
H35 -1.175361976130E-01 -4.039334084665E-01  9.852913532682E-02
H36  1.175361976130E-01  4.039334084665E-01 -9.852913532682E-02
C37 -4.343984673475E-01 -4.269782901879E-01  4.026911522432E-01
C38  4.343984673475E-01  4.269782901879E-01 -4.026911522432E-01
C39  4.968647729707E-01 -3.193605105144E-01  3.288185380156E-01
C40 -4.968647729707E-01  3.193605105144E-01 -3.288185380156E-01
C41 -4.885183393741E-01 -4.171119596951E-01  2.418584215641E-01
C42  4.885183393741E-01  4.171119596951E-01 -2.418584215641E-01
C43  4.552497274162E-01 -3.067952504601E-01  1.674610291176E-01
C44 -4.552497274162E-01  3.067952504601E-01 -1.674610291176E-01
C45  4.765175492246E-01 -4.006136627913E-01  8.342131315735E-02
C46 -4.765175492246E-01  4.006136627913E-01 -8.342131315735E-02
C47  4.256569343098E-01 -2.863377667237E-01  9.071588481039E-03
C48 -4.256569343098E-01  2.863377667237E-01 -9.071588481039E-03
C49 -4.485756509211E-01  3.791545362626E-01  7.382730489292E-02
C50  4.485756509211E-01 -3.791545362626E-01 -7.382730489292E-02
C51 -3.963161478489E-01  2.657644161590E-01  1.491182781074E-01
C52  3.963161478489E-01 -2.657644161590E-01 -1.491182781074E-01
C53 -4.136018775194E-01  3.622405573442E-01  2.320238378939E-01
C54  4.136018775194E-01 -3.622405573442E-01 -2.320238378939E-01
C55 -3.484319772813E-01  2.550880079395E-01  3.109001163355E-01
C56  3.484319772813E-01 -2.550880079395E-01 -3.109001163355E-01
C57 -3.582789863970E-01  3.588618221434E-01  3.930327170729E-01
C58  3.582789863970E-01 -3.588618221434E-01 -3.930327170729E-01
H59 -4.387922529384E-01 -3.545085661996E-01  4.689086285137E-01
H60  4.387922529384E-01  3.545085661996E-01 -4.689086285137E-01
H61  4.319156273448E-01 -1.562329100873E-01  3.349659689739E-01
H62 -4.319156273448E-01  1.562329100873E-01 -3.349659689739E-01
H63  3.949117781817E-01 -1.411565336066E-01  1.740061687785E-01
H64 -3.949117781817E-01  1.411565336066E-01 -1.740061687785E-01
H65  3.689726533888E-01 -1.193694150183E-01  1.623105800585E-02
H66 -3.689726533888E-01  1.193694150183E-01 -1.623105800585E-02
H67 -3.351435027224E-01  1.007792557056E-01  1.427339485238E-01
H68  3.351435027224E-01 -1.007792557056E-01 -1.427339485238E-01
H69 -2.808794239522E-01  9.381791959720E-02  3.054798978225E-01
H70  2.808794239522E-01 -9.381791959720E-02 -3.054798978225E-01
H71 -3.078391617422E-01  2.751626095040E-01  4.531474241666E-01
H72  3.078391617422E-01 -2.751626095040E-01 -4.531474241666E-01


#===END

data_OPT_STEP_8

_symmetry_space_group_name_H-M 'P 1'
_cell_length_a      7.65491247
_cell_length_b      6.24156761
_cell_length_c     15.99416585
_cell_angle_alpha  100.659157
_cell_angle_beta  112.432968
_cell_angle_gamma   87.267085

loop_
_atom_site_label
_atom_site_fract_x
_atom_site_fract_y
_atom_site_fract_z
C1  1.259608700597E-01  3.734158146052E-02  4.091987270898E-01
C2 -1.259608700597E-01 -3.734158146052E-02 -4.091987270898E-01
C3 -1.326148063142E-02 -2.691072085744E-01  2.837329217728E-01
C4  1.326148063142E-02  2.691072085744E-01 -2.837329217728E-01
C5  4.598717687753E-02 -1.805925194795E-01  3.756619631787E-01
C6 -4.598717687753E-02  1.805925194795E-01 -3.756619631787E-01
C7  1.480839040995E-01  1.583458462828E-01  3.498596669293E-01
C8 -1.480839040995E-01 -1.583458462828E-01 -3.498596669293E-01
C9  9.404515645301E-02  6.807222813221E-02  2.528684238448E-01
C10 -9.404515645301E-02 -6.807222813221E-02 -2.528684238448E-01
C11  1.199165797734E-01  1.824229108436E-01  1.913169316719E-01
C12 -1.199165797734E-01 -1.824229108436E-01 -1.913169316719E-01
C13  6.167197248199E-02  9.491403282392E-02  9.590304780435E-02
C14 -6.167197248199E-02 -9.491403282392E-02 -9.590304780435E-02
C15  8.574526095505E-02  2.101411978689E-01  3.287837796642E-02
C16 -8.574526095505E-02 -2.101411978689E-01 -3.287837796642E-02
C17 -2.999040061349E-02 -1.216183862836E-01  6.132404625285E-02
C18  2.999040061349E-02  1.216183862836E-01 -6.132404625285E-02
C19 -4.966858790674E-02 -2.400559906239E-01  1.252932141157E-01
C20  4.966858790674E-02  2.400559906239E-01 -1.252932141157E-01
C21  9.268770119669E-03 -1.511192367253E-01  2.189617188391E-01
C22 -9.268770119669E-03  1.511192367253E-01 -2.189617188391E-01
H23  1.726465639375E-01  1.046260320834E-01  4.839331118955E-01
H24 -1.726465639375E-01 -1.046260320834E-01 -4.839331118955E-01
H25 -8.141568436504E-02 -4.332978125166E-01  2.574111386457E-01
H26  8.141568436504E-02  4.332978125166E-01 -2.574111386457E-01
H27  2.946790281630E-02 -2.777728497477E-01  4.239744533347E-01
H28 -2.946790281630E-02  2.777728497477E-01 -4.239744533347E-01
H29  2.084997498871E-01  3.271130786019E-01  3.748456253458E-01
H30 -2.084997498871E-01 -3.271130786019E-01 -3.748456253458E-01
H31  1.877435356598E-01  3.456943269299E-01  2.166728748242E-01
H32 -1.877435356598E-01 -3.456943269299E-01 -2.166728748242E-01
H33  1.511343010408E-01  3.733234862787E-01  5.813435995714E-02
H34 -1.511343010408E-01 -3.733234862787E-01 -5.813435995714E-02
H35 -1.178400063817E-01 -4.045076417582E-01  9.922836625913E-02
H36  1.178400063817E-01  4.045076417582E-01 -9.922836625913E-02
C37 -4.363979236074E-01 -4.283352562257E-01  4.019844130149E-01
C38  4.363979236074E-01  4.283352562257E-01 -4.019844130149E-01
C39  4.985584897947E-01 -3.190395047174E-01  3.287426371834E-01
C40 -4.985584897947E-01  3.190395047174E-01 -3.287426371834E-01
C41 -4.878102727061E-01 -4.173322905828E-01  2.418163948936E-01
C42  4.878102727061E-01  4.173322905828E-01 -2.418163948936E-01
C43  4.568763663680E-01 -3.061538605930E-01  1.676587311896E-01
C44 -4.568763663680E-01  3.061538605930E-01 -1.676587311896E-01
C45  4.765519512850E-01 -4.006577495801E-01  8.334770574170E-02
C46 -4.765519512850E-01  4.006577495801E-01 -8.334770574170E-02
C47  4.257537047430E-01 -2.863526323698E-01  9.056212223660E-03
C48 -4.257537047430E-01  2.863526323698E-01 -9.056212223660E-03
C49 -4.480192353587E-01  3.797389230396E-01  7.387458015154E-02
C50  4.480192353587E-01 -3.797389230396E-01 -7.387458015154E-02
C51 -3.943110682605E-01  2.668322205704E-01  1.495435580895E-01
C52  3.943110682605E-01 -2.668322205704E-01 -1.495435580895E-01
C53 -4.102537104180E-01  3.639272667762E-01  2.326072119808E-01
C54  4.102537104180E-01 -3.639272667762E-01 -2.326072119808E-01
C55 -3.468257244133E-01  2.551363900048E-01  3.111237766831E-01
C56  3.468257244133E-01 -2.551363900048E-01 -3.111237766831E-01
C57 -3.598661409873E-01  3.569652969857E-01  3.926722607358E-01
C58  3.598661409873E-01 -3.569652969857E-01 -3.926722607358E-01
H59 -4.437511750845E-01 -3.541149724507E-01  4.682674266012E-01
H60  4.437511750845E-01  3.541149724507E-01 -4.682674266012E-01
H61  4.358985874361E-01 -1.547922611816E-01  3.352267244715E-01
H62 -4.358985874361E-01  1.547922611816E-01 -3.352267244715E-01
H63  3.975862264203E-01 -1.398717189359E-01  1.744044995641E-01
H64 -3.975862264203E-01  1.398717189359E-01 -1.744044995641E-01
H65  3.659069011663E-01 -1.210067272745E-01  1.566196678126E-02
H66 -3.659069011663E-01  1.210067272745E-01 -1.566196678126E-02
H67 -3.359277663119E-01  1.002016085473E-01  1.425500280119E-01
H68  3.359277663119E-01 -1.002016085473E-01 -1.425500280119E-01
H69 -2.848487094776E-01  9.054233912583E-02  3.046515663196E-01
H70  2.848487094776E-01 -9.054233912583E-02 -3.046515663196E-01
H71 -3.087726646067E-01  2.731159903854E-01  4.529360511332E-01
H72  3.087726646067E-01 -2.731159903854E-01 -4.529360511332E-01


#===END

data_OPT_STEP_9

_symmetry_space_group_name_H-M 'P 1'
_cell_length_a      7.62627503
_cell_length_b      6.25275271
_cell_length_c     16.00238950
_cell_angle_alpha  100.765909
_cell_angle_beta  112.485306
_cell_angle_gamma   86.937074

loop_
_atom_site_label
_atom_site_fract_x
_atom_site_fract_y
_atom_site_fract_z
C1  1.264656731637E-01  3.714287784503E-02  4.090180586739E-01
C2 -1.264656731637E-01 -3.714287784503E-02 -4.090180586739E-01
C3 -1.443972517926E-02 -2.684447357524E-01  2.835807803593E-01
C4  1.443972517926E-02  2.684447357524E-01 -2.835807803593E-01
C5  4.311915223261E-02 -1.778606731112E-01  3.754704576180E-01
C6 -4.311915223261E-02  1.778606731112E-01 -3.754704576180E-01
C7  1.492627410765E-01  1.568054192953E-01  3.497086337279E-01
C8 -1.492627410765E-01 -1.568054192953E-01 -3.497086337279E-01
C9  9.318080196910E-02  6.798266410016E-02  2.527150004888E-01
C10 -9.318080196910E-02 -6.798266410016E-02 -2.527150004888E-01
C11  1.149456997724E-01  1.857347503803E-01  1.909619615584E-01
C12 -1.149456997724E-01 -1.857347503803E-01 -1.909619615584E-01
C13  5.884467096229E-02  9.630034479697E-02  9.558975948111E-02
C14 -5.884467096229E-02 -9.630034479697E-02 -9.558975948111E-02
C15  8.456415175708E-02  2.110050467857E-01  3.292560163278E-02
C16 -8.456415175708E-02 -2.110050467857E-01 -3.292560163278E-02
C17 -2.857164398339E-02 -1.221362851420E-01  6.139732068419E-02
C18  2.857164398339E-02  1.221362851420E-01 -6.139732068419E-02
C19 -5.239847703054E-02 -2.380539055511E-01  1.250120810276E-01
C20  5.239847703054E-02  2.380539055511E-01 -1.250120810276E-01
C21  6.524175761722E-03 -1.495908548188E-01  2.186723596380E-01
C22 -6.524175761722E-03  1.495908548188E-01 -2.186723596380E-01
H23  1.710898511299E-01  1.063337830026E-01  4.835120919712E-01
H24 -1.710898511299E-01 -1.063337830026E-01 -4.835120919712E-01
H25 -7.786380241130E-02 -4.354500517127E-01  2.576904826795E-01
H26  7.786380241130E-02  4.354500517127E-01 -2.576904826795E-01
H27  2.710250760916E-02 -2.737124564117E-01  4.242022924081E-01
H28 -2.710250760916E-02  2.737124564117E-01 -4.242022924081E-01
H29  2.107392556670E-01  3.236542585736E-01  3.742956332896E-01
H30 -2.107392556670E-01 -3.236542585736E-01 -3.742956332896E-01
H31  1.781022725686E-01  3.525677008112E-01  2.162715397298E-01
H32 -1.781022725686E-01 -3.525677008112E-01 -2.162715397298E-01
H33  1.501830428794E-01  3.747387045977E-01  5.835511117615E-02
H34 -1.501830428794E-01 -3.747387045977E-01 -5.835511117615E-02
H35 -1.194006736459E-01 -4.028751134619E-01  9.915824200385E-02
H36  1.194006736459E-01  4.028751134619E-01 -9.915824200385E-02
C37 -4.392712498646E-01 -4.314374233842E-01  4.009041771152E-01
C38  4.392712498646E-01  4.314374233842E-01 -4.009041771152E-01
C39 -4.994774166162E-01 -3.199814761561E-01  3.285824477100E-01
C40  4.994774166162E-01  3.199814761561E-01 -3.285824477100E-01
C41 -4.847117998396E-01 -4.169006236847E-01  2.421001120542E-01
C42  4.847117998396E-01  4.169006236847E-01 -2.421001120542E-01
C43  4.583626001334E-01 -3.062081841608E-01  1.678631767953E-01
C44 -4.583626001334E-01  3.062081841608E-01 -1.678631767953E-01
C45  4.780076427499E-01 -4.000521861468E-01  8.358672216467E-02
C46 -4.780076427499E-01  4.000521861468E-01 -8.358672216467E-02
C47  4.242988999696E-01 -2.874664891226E-01  8.994238020552E-03
C48 -4.242988999696E-01  2.874664891226E-01 -8.994238020552E-03
C49 -4.456963655999E-01  3.807098266118E-01  7.406101507675E-02
C50  4.456963655999E-01 -3.807098266118E-01 -7.406101507675E-02
C51 -3.902988719066E-01  2.687320020128E-01  1.499026848881E-01
C52  3.902988719066E-01 -2.687320020128E-01 -1.499026848881E-01
C53 -4.085902896697E-01  3.635948959608E-01  2.325838759686E-01
C54  4.085902896697E-01 -3.635948959608E-01 -2.325838759686E-01
C55 -3.477355375058E-01  2.533485472065E-01  3.105207868513E-01
C56  3.477355375058E-01 -2.533485472065E-01 -3.105207868513E-01
C57 -3.621464605904E-01  3.531062549098E-01  3.918003114452E-01
C58  3.621464605904E-01 -3.531062549098E-01 -3.918003114452E-01
H59 -4.477147668322E-01 -3.548057257370E-01  4.678658459719E-01
H60  4.477147668322E-01  3.548057257370E-01 -4.678658459719E-01
H61  4.419157149435E-01 -1.537679857107E-01  3.358377202501E-01
H62 -4.419157149435E-01  1.537679857107E-01 -3.358377202501E-01
H63  3.977885363189E-01 -1.406969112076E-01  1.745903136316E-01
H64 -3.977885363189E-01  1.406969112076E-01 -1.745903136316E-01
H65  3.639217878896E-01 -1.220907019286E-01  1.579528837624E-02
H66 -3.639217878896E-01  1.220907019286E-01 -1.579528837624E-02
H67 -3.284852895887E-01  1.040590186483E-01  1.433590297323E-01
H68  3.284852895887E-01 -1.040590186483E-01 -1.433590297323E-01
H69 -2.874905146386E-01  8.773168673115E-02  3.037015542487E-01
H70  2.874905146386E-01 -8.773168673115E-02 -3.037015542487E-01
H71 -3.103610706457E-01  2.696694072059E-01  4.522115234050E-01
H72  3.103610706457E-01 -2.696694072059E-01 -4.522115234050E-01


#===END

data_OPT_STEP_10

_symmetry_space_group_name_H-M 'P 1'
_cell_length_a      7.63860613
_cell_length_b      6.24699335
_cell_length_c     16.00644170
_cell_angle_alpha  101.106052
_cell_angle_beta  112.517500
_cell_angle_gamma   86.070304

loop_
_atom_site_label
_atom_site_fract_x
_atom_site_fract_y
_atom_site_fract_z
C1  1.283139804602E-01  4.072693861502E-02  4.094498875815E-01
C2 -1.283139804602E-01 -4.072693861502E-02 -4.094498875815E-01
C3 -1.303439976419E-02 -2.638715888262E-01  2.841825827653E-01
C4  1.303439976419E-02  2.638715888262E-01 -2.841825827653E-01
C5  4.494692126859E-02 -1.730961516429E-01  3.760976123387E-01
C6 -4.494692126859E-02  1.730961516429E-01 -3.760976123387E-01
C7  1.510056909157E-01  1.588867995885E-01  3.499713678512E-01
C8 -1.510056909157E-01 -1.588867995885E-01 -3.499713678512E-01
C9  9.455374977791E-02  6.974485981163E-02  2.529652511037E-01
C10 -9.455374977791E-02 -6.974485981163E-02 -2.529652511037E-01
C11  1.163908370404E-01  1.858674128411E-01  1.910490608537E-01
C12 -1.163908370404E-01 -1.858674128411E-01 -1.910490608537E-01
C13  5.939416449557E-02  9.654934763303E-02  9.564194841579E-02
C14 -5.939416449557E-02 -9.654934763303E-02 -9.564194841579E-02
C15  8.398227737372E-02  2.102324607520E-01  3.273055624101E-02
C16 -8.398227737372E-02 -2.102324607520E-01 -3.273055624101E-02
C17 -2.704491949767E-02 -1.215951215222E-01  6.166175833013E-02
C18  2.704491949767E-02  1.215951215222E-01 -6.166175833013E-02
C19 -5.088137432181E-02 -2.357171064271E-01  1.254283143429E-01
C20  5.088137432181E-02  2.357171064271E-01 -1.254283143429E-01
C21  8.024575083549E-03 -1.468949858728E-01  2.191001480692E-01
C22 -8.024575083549E-03  1.468949858728E-01 -2.191001480692E-01
H23  1.722920294005E-01  1.107955939051E-01  4.838907877433E-01
H24 -1.722920294005E-01 -1.107955939051E-01 -4.838907877433E-01
H25 -7.689815313511E-02 -4.297381208199E-01  2.584058569319E-01
H26  7.689815313511E-02  4.297381208199E-01 -2.584058569319E-01
H27  2.869340669149E-02 -2.672330425162E-01  4.250068701323E-01
H28 -2.869340669149E-02  2.672330425162E-01 -4.250068701323E-01
H29  2.118645654031E-01  3.250845530601E-01  3.744292813295E-01
H30 -2.118645654031E-01 -3.250845530601E-01 -3.744292813295E-01
H31  1.803334874289E-01  3.512841827174E-01  2.162690772663E-01
H32 -1.803334874289E-01 -3.512841827174E-01 -2.162690772663E-01
H33  1.489784907279E-01  3.737849994815E-01  5.801230163424E-02
H34 -1.489784907279E-01 -3.737849994815E-01 -5.801230163424E-02
H35 -1.172048014579E-01 -4.001233879125E-01  9.974520110907E-02
H36  1.172048014579E-01  4.001233879125E-01 -9.974520110907E-02
C37 -4.410258976503E-01 -4.326015850781E-01  4.005959975399E-01
C38  4.410258976503E-01  4.326015850781E-01 -4.005959975399E-01
C39  4.991568994124E-01 -3.199662018886E-01  3.286060972726E-01
C40 -4.991568994124E-01  3.199662018886E-01 -3.286060972726E-01
C41 -4.858509121208E-01 -4.173140062943E-01  2.419947522332E-01
C42  4.858509121208E-01  4.173140062943E-01 -2.419947522332E-01
C43  4.580285385024E-01 -3.050408603624E-01  1.681959766174E-01
C44 -4.580285385024E-01  3.050408603624E-01 -1.681959766174E-01
C45  4.778891914152E-01 -3.994453247232E-01  8.377619406600E-02
C46 -4.778891914152E-01  3.994453247232E-01 -8.377619406600E-02
C47  4.250843937662E-01 -2.853479430023E-01  9.623356305694E-03
C48 -4.250843937662E-01  2.853479430023E-01 -9.623356305694E-03
C49 -4.463157374740E-01  3.792567991088E-01  7.364091099664E-02
C50  4.463157374740E-01 -3.792567991088E-01 -7.364091099664E-02
C51 -3.918576847231E-01  2.659550784774E-01  1.490588630047E-01
C52  3.918576847231E-01 -2.659550784774E-01 -1.490588630047E-01
C53 -4.099024547323E-01  3.613000201583E-01  2.319526635422E-01
C54  4.099024547323E-01 -3.613000201583E-01 -2.319526635422E-01
C55 -3.493879746849E-01  2.499912590743E-01  3.095784759664E-01
C56  3.493879746849E-01 -2.499912590743E-01 -3.095784759664E-01
C57 -3.635862464868E-01  3.502380298540E-01  3.910664554868E-01
C58  3.635862464868E-01 -3.502380298540E-01 -3.910664554868E-01
H59 -4.495365809783E-01 -3.552622702063E-01  4.677587057833E-01
H60  4.495365809783E-01  3.552622702063E-01 -4.677587057833E-01
H61  4.411648548745E-01 -1.521881974922E-01  3.363628308502E-01
H62 -4.411648548745E-01  1.521881974922E-01 -3.363628308502E-01
H63  3.985391541131E-01 -1.376985329916E-01  1.755234335213E-01
H64 -3.985391541131E-01  1.376985329916E-01 -1.755234335213E-01
H65  3.660585769719E-01 -1.178501564171E-01  1.707008507086E-02
H66 -3.660585769719E-01  1.178501564171E-01 -1.707008507086E-02
H67 -3.312559368290E-01  9.923577121465E-02  1.418982378021E-01
H68  3.312559368290E-01 -9.923577121465E-02 -1.418982378021E-01
H69 -2.894529185186E-01  8.286253578573E-02  3.023213049394E-01
H70  2.894529185186E-01 -8.286253578573E-02 -3.023213049394E-01
H71 -3.117509702400E-01  2.660563455463E-01  4.513013722240E-01
H72  3.117509702400E-01 -2.660563455463E-01 -4.513013722240E-01


#===END

data_OPT_STEP_11

_symmetry_space_group_name_H-M 'P 1'
_cell_length_a      7.59608100
_cell_length_b      6.26526553
_cell_length_c     16.00855644
_cell_angle_alpha  101.058340
_cell_angle_beta  112.383957
_cell_angle_gamma   86.536770

loop_
_atom_site_label
_atom_site_fract_x
_atom_site_fract_y
_atom_site_fract_z
C1  1.279567929583E-01  3.635420830379E-02  4.087684026586E-01
C2 -1.279567929583E-01 -3.635420830379E-02 -4.087684026586E-01
C3 -1.452986733857E-02 -2.682058054589E-01  2.831479103350E-01
C4  1.452986733857E-02  2.682058054589E-01 -2.831479103350E-01
C5  4.497797679693E-02 -1.787694393823E-01  3.751656545777E-01
C6 -4.497797679693E-02  1.787694393823E-01 -3.751656545777E-01
C7  1.515251891610E-01  1.549392426790E-01  3.496255622630E-01
C8 -1.515251891610E-01 -1.549392426790E-01 -3.496255622630E-01
C9  9.485491944429E-02  6.645421653635E-02  2.526509607387E-01
C10 -9.485491944429E-02 -6.645421653635E-02 -2.526509607387E-01
C11  1.190662515391E-01  1.824697999403E-01  1.911869624537E-01
C12 -1.190662515391E-01 -1.824697999403E-01 -1.911869624537E-01
C13  6.071512567881E-02  9.454819315534E-02  9.575572617281E-02
C14 -6.071512567881E-02 -9.454819315534E-02 -9.575572617281E-02
C15  8.291898918011E-02  2.122050080545E-01  3.307968681696E-02
C16 -8.291898918011E-02 -2.122050080545E-01 -3.307968681696E-02
C17 -2.447040385506E-02 -1.245199767738E-01  6.143021901337E-02
C18  2.447040385506E-02  1.245199767738E-01 -6.143021901337E-02
C19 -4.887094835838E-02 -2.403594006202E-01  1.248519151700E-01
C20  4.887094835838E-02  2.403594006202E-01 -1.248519151700E-01
C21  8.275167093961E-03 -1.508091841784E-01  2.184741170014E-01
C22 -8.275167093961E-03  1.508091841784E-01 -2.184741170014E-01
H23  1.701275707551E-01  1.076771628631E-01  4.830481072736E-01
H24 -1.701275707551E-01 -1.076771628631E-01 -4.830481072736E-01
H25 -8.136567270066E-02 -4.326571824555E-01  2.569601141590E-01
H26  8.136567270066E-02  4.326571824555E-01 -2.569601141590E-01
H27  2.791418404344E-02 -2.725731525515E-01  4.240191022106E-01
H28 -2.791418404344E-02  2.725731525515E-01 -4.240191022106E-01
H29  2.115910189565E-01  3.225906733234E-01  3.742905638106E-01
H30 -2.115910189565E-01 -3.225906733234E-01 -3.742905638106E-01
H31  1.856451865043E-01  3.468740531934E-01  2.169146194488E-01
H32 -1.856451865043E-01 -3.468740531934E-01 -2.169146194488E-01
H33  1.459459560921E-01  3.783142748321E-01  5.859389190063E-02
H34 -1.459459560921E-01 -3.783142748321E-01 -5.859389190063E-02
H35 -1.126872249613E-01 -4.069282316109E-01  9.914269786069E-02
H36  1.126872249613E-01  4.069282316109E-01 -9.914269786069E-02
C37 -4.419676443364E-01 -4.334791648327E-01  4.002234088391E-01
C38  4.419676443364E-01  4.334791648327E-01 -4.002234088391E-01
C39  4.987745581769E-01 -3.217946799207E-01  3.283135992749E-01
C40 -4.987745581769E-01  3.217946799207E-01 -3.283135992749E-01
C41 -4.864423014090E-01 -4.183019900740E-01  2.417541227691E-01
C42  4.864423014090E-01  4.183019900740E-01 -2.417541227691E-01
C43  4.578132705511E-01 -3.065165636624E-01  1.680985672809E-01
C44 -4.578132705511E-01  3.065165636624E-01 -1.680985672809E-01
C45  4.772374945778E-01 -4.003585897565E-01  8.361895800528E-02
C46 -4.772374945778E-01  4.003585897565E-01 -8.361895800528E-02
C47  4.242514672634E-01 -2.873313217268E-01  9.497369346739E-03
C48 -4.242514672634E-01  2.873313217268E-01 -9.497369346739E-03
C49 -4.451172363212E-01  3.807107064948E-01  7.380411430529E-02
C50  4.451172363212E-01 -3.807107064948E-01 -7.380411430529E-02
C51 -3.917076572652E-01  2.678757191180E-01  1.489918508584E-01
C52  3.917076572652E-01 -2.678757191180E-01 -1.489918508584E-01
C53 -4.096021920025E-01  3.624441460988E-01  2.318835124139E-01
C54  4.096021920025E-01 -3.624441460988E-01 -2.318835124139E-01
C55 -3.491957435623E-01  2.518857320078E-01  3.095099078675E-01
C56  3.491957435623E-01 -2.518857320078E-01 -3.095099078675E-01
C57 -3.639415681635E-01  3.508275904644E-01  3.908816713976E-01
C58  3.639415681635E-01 -3.508275904644E-01 -3.908816713976E-01
H59 -4.509176846833E-01 -3.556441966701E-01  4.675805533040E-01
H60  4.509176846833E-01  3.556441966701E-01 -4.675805533040E-01
H61  4.410762937210E-01 -1.549809861112E-01  3.360807824668E-01
H62 -4.410762937210E-01  1.549809861112E-01 -3.360807824668E-01
H63  3.998842879246E-01 -1.395030978029E-01  1.757957279761E-01
H64 -3.998842879246E-01  1.395030978029E-01 -1.757957279761E-01
H65  3.663786469551E-01 -1.201486509854E-01  1.725865935168E-02
H66 -3.663786469551E-01  1.201486509854E-01 -1.725865935168E-02
H67 -3.332005489584E-01  1.010430419573E-01  1.414193946650E-01
H68  3.332005489584E-01 -1.010430419573E-01 -1.414193946650E-01
H69 -2.880397452444E-01  8.666412412778E-02  3.025017729930E-01
H70  2.880397452444E-01 -8.666412412778E-02 -3.025017729930E-01
H71 -3.126477702120E-01  2.672742839704E-01  4.510804351904E-01
H72  3.126477702120E-01 -2.672742839704E-01 -4.510804351904E-01


#===END

data_OPT_STEP_12

_symmetry_space_group_name_H-M 'P 1'
_cell_length_a      7.60761331
_cell_length_b      6.24528924
_cell_length_c     16.02001356
_cell_angle_alpha  101.411226
_cell_angle_beta  112.440062
_cell_angle_gamma   85.905597

loop_
_atom_site_label
_atom_site_fract_x
_atom_site_fract_y
_atom_site_fract_z
C1  1.268794224145E-01  4.022469308141E-02  4.086403295799E-01
C2 -1.268794224145E-01 -4.022469308141E-02 -4.086403295799E-01
C3 -1.412628351399E-02 -2.660963905767E-01  2.830220964589E-01
C4  1.412628351399E-02  2.660963905767E-01 -2.830220964589E-01
C5  4.581928344489E-02 -1.763605683851E-01  3.750934396105E-01
C6 -4.581928344489E-02  1.763605683851E-01 -3.750934396105E-01
C7  1.489643093193E-01  1.591952691797E-01  3.494671179689E-01
C8 -1.489643093193E-01 -1.591952691797E-01 -3.494671179689E-01
C9  9.133369072299E-02  7.061918752362E-02  2.524281996914E-01
C10 -9.133369072299E-02 -7.061918752362E-02 -2.524281996914E-01
C11  1.170008746470E-01  1.851262796997E-01  1.911531182381E-01
C12 -1.170008746470E-01 -1.851262796997E-01 -1.911531182381E-01
C13  5.984924333645E-02  9.596747939767E-02  9.569786071733E-02
C14 -5.984924333645E-02 -9.596747939767E-02 -9.569786071733E-02
C15  8.436604667786E-02  2.112442137519E-01  3.333671930432E-02
C16 -8.436604667786E-02 -2.112442137519E-01 -3.333671930432E-02
C17 -2.624422512528E-02 -1.226800062241E-01  6.125198026483E-02
C18  2.624422512528E-02  1.226800062241E-01 -6.125198026483E-02
C19 -5.000604293505E-02 -2.382419815805E-01  1.246472060134E-01
C20  5.000604293505E-02  2.382419815805E-01 -1.246472060134E-01
C21  7.172777086379E-03 -1.481803929646E-01  2.183114106502E-01
C22 -7.172777086379E-03  1.481803929646E-01 -2.183114106502E-01
H23  1.708048163973E-01  1.109527815500E-01  4.830138877344E-01
H24 -1.708048163973E-01 -1.109527815500E-01 -4.830138877344E-01
H25 -8.018055829400E-02 -4.310261322080E-01  2.568066434894E-01
H26  8.018055829400E-02  4.310261322080E-01 -2.568066434894E-01
H27  2.852313965607E-02 -2.690133508888E-01  4.240114851339E-01
H28 -2.852313965607E-02  2.690133508888E-01 -4.240114851339E-01
H29  2.087052105042E-01  3.271716243772E-01  3.743880723267E-01
H30 -2.087052105042E-01 -3.271716243772E-01 -3.743880723267E-01
H31  1.828828716920E-01  3.500890278800E-01  2.170606951632E-01
H32 -1.828828716920E-01 -3.500890278800E-01 -2.170606951632E-01
H33  1.484771290999E-01  3.769880971156E-01  5.905086463168E-02
H34 -1.484771290999E-01 -3.769880971156E-01 -5.905086463168E-02
H35 -1.135290770638E-01 -4.049886062050E-01  9.889324177382E-02
H36  1.135290770638E-01  4.049886062050E-01 -9.889324177382E-02
C37 -4.426242735627E-01 -4.353434989022E-01  4.000139157145E-01
C38  4.426242735627E-01  4.353434989022E-01 -4.000139157145E-01
C39  4.969758604642E-01 -3.232013153742E-01  3.282354328427E-01
C40 -4.969758604642E-01  3.232013153742E-01 -3.282354328427E-01
C41 -4.882491745618E-01 -4.198432437056E-01  2.414632847116E-01
C42  4.882491745618E-01  4.198432437056E-01 -2.414632847116E-01
C43  4.552015543838E-01 -3.072562254429E-01  1.680395910142E-01
C44 -4.552015543838E-01  3.072562254429E-01 -1.680395910142E-01
C45  4.752769977951E-01 -4.009288794340E-01  8.349061948563E-02
C46 -4.752769977951E-01  4.009288794340E-01 -8.349061948563E-02
C47  4.209159226385E-01 -2.874933496567E-01  9.467937845794E-03
C48 -4.209159226385E-01  2.874933496567E-01 -9.467937845794E-03
C49 -4.435188756563E-01  3.802647987430E-01  7.370363842127E-02
C50  4.435188756563E-01 -3.802647987430E-01 -7.370363842127E-02
C51 -3.898285598723E-01  2.663520185005E-01  1.485594312973E-01
C52  3.898285598723E-01 -2.663520185005E-01 -1.485594312973E-01
C53 -4.091119941219E-01  3.605675958649E-01  2.314072131234E-01
C54  4.091119941219E-01 -3.605675958649E-01 -2.314072131234E-01
C55 -3.491500123375E-01  2.484727694199E-01  3.085932978387E-01
C56  3.491500123375E-01 -2.484727694199E-01 -3.085932978387E-01
C57 -3.643948340447E-01  3.473139953519E-01  3.900986712770E-01
C58  3.643948340447E-01 -3.473139953519E-01 -3.900986712770E-01
H59 -4.509300093025E-01 -3.567724233460E-01  4.675570470862E-01
H60  4.509300093025E-01  3.567724233460E-01 -4.675570470862E-01
H61  4.373515871491E-01 -1.560435392351E-01  3.361453580562E-01
H62 -4.373515871491E-01  1.560435392351E-01 -3.361453580562E-01
H63  3.957005538090E-01 -1.397781528879E-01  1.759564612910E-01
H64 -3.957005538090E-01  1.397781528879E-01 -1.759564612910E-01
H65  3.594807354739E-01 -1.209430713078E-01  1.706742481752E-02
H66 -3.594807354739E-01  1.209430713078E-01 -1.706742481752E-02
H67 -3.295664705053E-01  9.919465282891E-02  1.408092586959E-01
H68  3.295664705053E-01 -9.919465282891E-02 -1.408092586959E-01
H69 -2.863886503099E-01  8.291018325794E-02  3.013882477905E-01
H70  2.863886503099E-01 -8.291018325794E-02 -3.013882477905E-01
H71 -3.134090803878E-01  2.627242994322E-01  4.499895361173E-01
H72  3.134090803878E-01 -2.627242994322E-01 -4.499895361173E-01


#===END

data_OPT_STEP_13

_symmetry_space_group_name_H-M 'P 1'
_cell_length_a      7.62364160
_cell_length_b      6.24764895
_cell_length_c     16.02680293
_cell_angle_alpha  101.467182
_cell_angle_beta  112.329410
_cell_angle_gamma   85.993930

loop_
_atom_site_label
_atom_site_fract_x
_atom_site_fract_y
_atom_site_fract_z
C1  1.278036115070E-01  3.956035541392E-02  4.082585006833E-01
C2 -1.278036115070E-01 -3.956035541392E-02 -4.082585006833E-01
C3 -1.243091360275E-02 -2.683116964917E-01  2.827147104426E-01
C4  1.243091360275E-02  2.683116964917E-01 -2.827147104426E-01
C5  4.651503420687E-02 -1.775228129525E-01  3.746816230459E-01
C6 -4.651503420687E-02  1.775228129525E-01 -3.746816230459E-01
C7  1.484471959610E-01  1.596940169202E-01  3.490998283946E-01
C8 -1.484471959610E-01 -1.596940169202E-01 -3.490998283946E-01
C9  9.013996330870E-02  7.111337951090E-02  2.521090948804E-01
C10 -9.013996330870E-02 -7.111337951090E-02 -2.521090948804E-01
C11  1.159231974535E-01  1.862086974295E-01  1.910175381726E-01
C12 -1.159231974535E-01 -1.862086974295E-01 -1.910175381726E-01
C13  5.917459362854E-02  9.653847304759E-02  9.557709495508E-02
C14 -5.917459362854E-02 -9.653847304759E-02 -9.557709495508E-02
C15  8.442736134605E-02  2.117548391745E-01  3.350331670669E-02
C16 -8.442736134605E-02 -2.117548391745E-01 -3.350331670669E-02
C17 -2.745399455414E-02 -1.217543466969E-01  6.108493098507E-02
C18  2.745399455414E-02  1.217543466969E-01 -6.108493098507E-02
C19 -4.961524900050E-02 -2.389051426658E-01  1.244295021977E-01
C20  4.961524900050E-02  2.389051426658E-01 -1.244295021977E-01
C21  8.217111749610E-03 -1.493184461052E-01  2.180814439628E-01
C22 -8.217111749610E-03  1.493184461052E-01 -2.180814439628E-01
H23  1.754613915593E-01  1.080724033288E-01  4.827531120679E-01
H24 -1.754613915593E-01 -1.080724033288E-01 -4.827531120679E-01
H25 -7.652576269219E-02 -4.347112727725E-01  2.566274211533E-01
H26  7.652576269219E-02  4.347112727725E-01 -2.566274211533E-01
H27  2.853219642283E-02 -2.689831195263E-01  4.237190772189E-01
H28 -2.853219642283E-02  2.689831195263E-01 -4.237190772189E-01
H29  2.075940276099E-01  3.288388544597E-01  3.743445129641E-01
H30 -2.075940276099E-01 -3.288388544597E-01 -3.743445129641E-01
H31  1.802584881360E-01  3.528482077746E-01  2.171337686941E-01
H32 -1.802584881360E-01 -3.528482077746E-01 -2.171337686941E-01
H33  1.499701718111E-01  3.775200404974E-01  5.949368117316E-02
H34 -1.499701718111E-01 -3.775200404974E-01 -5.949368117316E-02
H35 -1.147175363246E-01 -4.048274699172E-01  9.848599385586E-02
H36  1.147175363246E-01  4.048274699172E-01 -9.848599385586E-02
C37 -4.416317745563E-01 -4.347814014967E-01  4.003208422770E-01
C38  4.416317745563E-01  4.347814014967E-01 -4.003208422770E-01
C39 -4.998218355340E-01 -3.217354327316E-01  3.289873743650E-01
C40  4.998218355340E-01  3.217354327316E-01 -3.289873743650E-01
C41 -4.866886649852E-01 -4.188868515187E-01  2.417856691781E-01
C42  4.866886649852E-01  4.188868515187E-01 -2.417856691781E-01
C43  4.595160614932E-01 -3.049771030739E-01  1.689512643895E-01
C44 -4.595160614932E-01  3.049771030739E-01 -1.689512643895E-01
C45  4.780549175207E-01 -3.994439936200E-01  8.407583478357E-02
C46 -4.780549175207E-01  3.994439936200E-01 -8.407583478357E-02
C47  4.274181977374E-01 -2.840089857402E-01  1.081606028537E-02
C48 -4.274181977374E-01  2.840089857402E-01 -1.081606028537E-02
C49 -4.471405479737E-01  3.782600902326E-01  7.293757664421E-02
C50  4.471405479737E-01 -3.782600902326E-01 -7.293757664421E-02
C51 -3.945421500268E-01  2.641712315645E-01  1.475424253429E-01
C52  3.945421500268E-01 -2.641712315645E-01 -1.475424253429E-01
C53 -4.112887984898E-01  3.597542001758E-01  2.308590396569E-01
C54  4.112887984898E-01 -3.597542001758E-01 -2.308590396569E-01
C55 -3.532634737153E-01  2.471237183415E-01  3.077456385037E-01
C56  3.532634737153E-01 -2.471237183415E-01 -3.077456385037E-01
C57 -3.653699844664E-01  3.473265437434E-01  3.898742590759E-01
C58  3.653699844664E-01 -3.473265437434E-01 -3.898742590759E-01
H59 -4.513570892865E-01 -3.572758856313E-01  4.673373872266E-01
H60  4.513570892865E-01  3.572758856313E-01 -4.673373872266E-01
H61  4.425587686480E-01 -1.538090190804E-01  3.374079602067E-01
H62 -4.425587686480E-01  1.538090190804E-01 -3.374079602067E-01
H63  4.022247147550E-01 -1.366809427747E-01  1.774102656614E-01
H64 -4.022247147550E-01  1.366809427747E-01 -1.774102656614E-01
H65  3.693066179045E-01 -1.159126075446E-01  1.916170984544E-02
H66 -3.693066179045E-01  1.159126075446E-01 -1.916170984544E-02
H67 -3.364865529328E-01  9.612494383731E-02  1.392377509960E-01
H68  3.364865529328E-01 -9.612494383731E-02 -1.392377509960E-01
H69 -2.949752099817E-01  7.941146584558E-02  2.995869674091E-01
H70  2.949752099817E-01 -7.941146584558E-02 -2.995869674091E-01
H71 -3.158309285914E-01  2.621699997417E-01  4.494155792003E-01
H72  3.158309285914E-01 -2.621699997417E-01 -4.494155792003E-01


#===END

data_OPT_STEP_14

_symmetry_space_group_name_H-M 'P 1'
_cell_length_a      7.62516290
_cell_length_b      6.23986689
_cell_length_c     16.02683230
_cell_angle_alpha  101.494397
_cell_angle_beta  112.303811
_cell_angle_gamma   85.893583

loop_
_atom_site_label
_atom_site_fract_x
_atom_site_fract_y
_atom_site_fract_z
C1  1.276173671689E-01  3.977941405969E-02  4.082077640692E-01
C2 -1.276173671689E-01 -3.977941405969E-02 -4.082077640692E-01
C3 -1.316328615517E-02 -2.678616427065E-01  2.826572636889E-01
C4  1.316328615517E-02  2.678616427065E-01 -2.826572636889E-01
C5  4.550975096929E-02 -1.768325136211E-01  3.745951043830E-01
C6 -4.550975096929E-02  1.768325136211E-01 -3.745951043830E-01
C7  1.487545939202E-01  1.596477836479E-01  3.490684981984E-01
C8 -1.487545939202E-01 -1.596477836479E-01 -3.490684981984E-01
C9  9.078200435594E-02  7.073197123052E-02  2.521118202137E-01
C10 -9.078200435594E-02 -7.073197123052E-02 -2.521118202137E-01
C11  1.164142056702E-01  1.860125650551E-01  1.910164832730E-01
C12 -1.164142056702E-01 -1.860125650551E-01 -1.910164832730E-01
C13  5.931236511115E-02  9.650247131899E-02  9.557674978625E-02
C14 -5.931236511115E-02 -9.650247131899E-02 -9.557674978625E-02
C15  8.392132139262E-02  2.121873219568E-01  3.345608431246E-02
C16 -8.392132139262E-02 -2.121873219568E-01 -3.345608431246E-02
C17 -2.717365640180E-02 -1.219552653420E-01  6.112455174859E-02
C18  2.717365640180E-02  1.219552653420E-01 -6.112455174859E-02
C19 -4.935645731619E-02 -2.391221101904E-01  1.244399537270E-01
C20  4.935645731619E-02  2.391221101904E-01 -1.244399537270E-01
C21  8.369379017268E-03 -1.494827397745E-01  2.180793915673E-01
C22 -8.369379017268E-03  1.494827397745E-01 -2.180793915673E-01
H23  1.753896581273E-01  1.082618335569E-01  4.827015514088E-01
H24 -1.753896581273E-01 -1.082618335569E-01 -4.827015514088E-01
H25 -7.749931266751E-02 -4.341892756345E-01  2.565814352693E-01
H26  7.749931266751E-02  4.341892756345E-01 -2.565814352693E-01
H27  2.731482569073E-02 -2.681123150165E-01  4.236392341363E-01
H28 -2.731482569073E-02  2.681123150165E-01 -4.236392341363E-01
H29  2.079114138665E-01  3.289240689512E-01  3.743598302474E-01
H30 -2.079114138665E-01 -3.289240689512E-01 -3.743598302474E-01
H31  1.808003196344E-01  3.527161433173E-01  2.171376473806E-01
H32 -1.808003196344E-01 -3.527161433173E-01 -2.171376473806E-01
H33  1.493257239828E-01  3.782184602562E-01  5.944049858707E-02
H34 -1.493257239828E-01 -3.782184602562E-01 -5.944049858707E-02
H35 -1.147927112004E-01 -4.049121256799E-01  9.846263875609E-02
H36  1.147927112004E-01  4.049121256799E-01 -9.846263875609E-02
C37 -4.413277221762E-01 -4.342627321587E-01  4.004510215658E-01
C38  4.413277221762E-01  4.342627321587E-01 -4.004510215658E-01
C39 -4.998980767395E-01 -3.211959977293E-01  3.290695028701E-01
C40  4.998980767395E-01  3.211959977293E-01 -3.290695028701E-01
C41 -4.865397885969E-01 -4.184321376287E-01  2.418566934292E-01
C42  4.865397885969E-01  4.184321376287E-01 -2.418566934292E-01
C43  4.589944039754E-01 -3.047589638702E-01  1.689126909880E-01
C44 -4.589944039754E-01  3.047589638702E-01 -1.689126909880E-01
C45  4.779689750385E-01 -3.992014174035E-01  8.409421363353E-02
C46 -4.779689750385E-01  3.992014174035E-01 -8.409421363353E-02
C47  4.270462065217E-01 -2.836995587325E-01  1.079550365149E-02
C48 -4.270462065217E-01  2.836995587325E-01 -1.079550365149E-02
C49 -4.468692834003E-01  3.781796926568E-01  7.296556886469E-02
C50  4.468692834003E-01 -3.781796926568E-01 -7.296556886469E-02
C51 -3.935657953191E-01  2.642200781951E-01  1.476829285108E-01
C52  3.935657953191E-01 -2.642200781951E-01 -1.476829285108E-01
C53 -4.105089314689E-01  3.600916893793E-01  2.309840800053E-01
C54  4.105089314689E-01 -3.600916893793E-01 -2.309840800053E-01
C55 -3.521208147246E-01  2.474266206134E-01  3.079270988304E-01
C56  3.521208147246E-01 -2.474266206134E-01 -3.079270988304E-01
C57 -3.644091175643E-01  3.478455427684E-01  3.900588818013E-01
C58  3.644091175643E-01 -3.478455427684E-01 -3.900588818013E-01
H59 -4.516752945284E-01 -3.570458066353E-01  4.672721129568E-01
H60  4.516752945284E-01  3.570458066353E-01 -4.672721129568E-01
H61  4.418654420661E-01 -1.532144458875E-01  3.374340924316E-01
H62 -4.418654420661E-01  1.532144458875E-01 -3.374340924316E-01
H63  4.005680144632E-01 -1.366958371477E-01  1.771948539856E-01
H64 -4.005680144632E-01  1.366958371477E-01 -1.771948539856E-01
H65  3.684370241934E-01 -1.155253401196E-01  1.907578552113E-02
H66 -3.684370241934E-01  1.155253401196E-01 -1.907578552113E-02
H67 -3.345599280931E-01  9.636968192745E-02  1.395070082681E-01
H68  3.345599280931E-01 -9.636968192745E-02 -1.395070082681E-01
H69 -2.936779360660E-01  7.945806524583E-02  2.997422406289E-01
H70  2.936779360660E-01 -7.945806524583E-02 -2.997422406289E-01
H71 -3.151515891259E-01  2.623339606791E-01  4.495138630387E-01
H72  3.151515891259E-01 -2.623339606791E-01 -4.495138630387E-01


#===END

data_OPT_STEP_15

_symmetry_space_group_name_H-M 'P 1'
_cell_length_a      7.64823432
_cell_length_b      6.23145112
_cell_length_c     16.02973386
_cell_angle_alpha  101.550052
_cell_angle_beta  112.332586
_cell_angle_gamma   85.824614

loop_
_atom_site_label
_atom_site_fract_x
_atom_site_fract_y
_atom_site_fract_z
C1  1.261540688531E-01  4.140326674899E-02  4.082859593435E-01
C2 -1.261540688531E-01 -4.140326674899E-02 -4.082859593435E-01
C3 -1.398916383406E-02 -2.672184758578E-01  2.824903213109E-01
C4  1.398916383406E-02  2.672184758578E-01 -2.824903213109E-01
C5  4.413513783671E-02 -1.757333594407E-01  3.744480705199E-01
C6 -4.413513783671E-02  1.757333594407E-01 -3.744480705199E-01
C7  1.488471050826E-01  1.602451591420E-01  3.492208347815E-01
C8 -1.488471050826E-01 -1.602451591420E-01 -3.492208347815E-01
C9  9.224796521584E-02  7.002406313748E-02  2.522621796022E-01
C10 -9.224796521584E-02 -7.002406313748E-02 -2.522621796022E-01
C11  1.159104744985E-01  1.868976688369E-01  1.911050509564E-01
C12 -1.159104744985E-01 -1.868976688369E-01 -1.911050509564E-01
C13  5.904775932678E-02  9.682587824297E-02  9.558198690760E-02
C14 -5.904775932678E-02 -9.682587824297E-02 -9.558198690760E-02
C15  8.369631335798E-02  2.123575187841E-01  3.350023612877E-02
C16 -8.369631335798E-02 -2.123575187841E-01 -3.350023612877E-02
C17 -2.689413477765E-02 -1.220053108809E-01  6.117367657719E-02
C18  2.689413477765E-02  1.220053108809E-01 -6.117367657719E-02
C19 -4.998392973669E-02 -2.385332299154E-01  1.242621265933E-01
C20  4.998392973669E-02  2.385332299154E-01 -1.242621265933E-01
C21  7.799778023674E-03 -1.489916898780E-01  2.179831482495E-01
C22 -7.799778023674E-03  1.489916898780E-01 -2.179831482495E-01
H23  1.702532406070E-01  1.126052109151E-01  4.826720426831E-01
H24 -1.702532406070E-01 -1.126052109151E-01 -4.826720426831E-01
H25 -7.863795892203E-02 -4.334874684993E-01  2.562975703385E-01
H26  7.863795892203E-02  4.334874684993E-01 -2.562975703385E-01
H27  2.702002869396E-02 -2.682271844755E-01  4.234154178951E-01
H28 -2.702002869396E-02  2.682271844755E-01 -4.234154178951E-01
H29  2.096753504307E-01  3.284174233829E-01  3.745824183187E-01
H30 -2.096753504307E-01 -3.284174233829E-01 -3.745824183187E-01
H31  1.818092864800E-01  3.526962718162E-01  2.174051613857E-01
H32 -1.818092864800E-01 -3.526962718162E-01 -2.174051613857E-01
H33  1.509689052345E-01  3.774370535557E-01  5.974967809205E-02
H34 -1.509689052345E-01 -3.774370535557E-01 -5.974967809205E-02
H35 -1.159495611493E-01 -4.041527245758E-01  9.806667940156E-02
H36  1.159495611493E-01  4.041527245758E-01 -9.806667940156E-02
C37 -4.418272287296E-01 -4.334152417214E-01  4.005284151012E-01
C38  4.418272287296E-01  4.334152417214E-01 -4.005284151012E-01
C39  4.989767002830E-01 -3.205909993617E-01  3.289976197811E-01
C40 -4.989767002830E-01  3.205909993617E-01 -3.289976197811E-01
C41 -4.861264123237E-01 -4.173622703914E-01  2.420024378296E-01
C42  4.861264123237E-01  4.173622703914E-01 -2.420024378296E-01
C43  4.590805357115E-01 -3.039990273038E-01  1.689513699042E-01
C44 -4.590805357115E-01  3.039990273038E-01 -1.689513699042E-01
C45  4.775688660026E-01 -3.990798946543E-01  8.403258026832E-02
C46 -4.775688660026E-01  3.990798946543E-01 -8.403258026832E-02
C47  4.248715320233E-01 -2.845134236986E-01  1.036765742991E-02
C48 -4.248715320233E-01  2.845134236986E-01 -1.036765742991E-02
C49 -4.460792288345E-01  3.785918479874E-01  7.315953854843E-02
C50  4.460792288345E-01 -3.785918479874E-01 -7.315953854843E-02
C51 -3.927679019558E-01  2.643313469930E-01  1.478516408522E-01
C52  3.927679019558E-01 -2.643313469930E-01 -1.478516408522E-01
C53 -4.103728769110E-01  3.605468097091E-01  2.310804205610E-01
C54  4.103728769110E-01 -3.605468097091E-01 -2.310804205610E-01
C55 -3.510407891731E-01  2.481669342374E-01  3.081948411112E-01
C56  3.510407891731E-01 -2.481669342374E-01 -3.081948411112E-01
C57 -3.660577621499E-01  3.478395860901E-01  3.899598953918E-01
C58  3.660577621499E-01 -3.478395860901E-01 -3.899598953918E-01
H59 -4.533415476735E-01 -3.568026271267E-01  4.668080913497E-01
H60  4.533415476735E-01  3.568026271267E-01 -4.668080913497E-01
H61  4.399292350039E-01 -1.526683362418E-01  3.372463900860E-01
H62 -4.399292350039E-01  1.526683362418E-01 -3.372463900860E-01
H63  4.012230586472E-01 -1.353010835484E-01  1.773103051645E-01
H64 -4.012230586472E-01  1.353010835484E-01 -1.773103051645E-01
H65  3.657375955271E-01 -1.164368069345E-01  1.849673580896E-02
H66 -3.657375955271E-01  1.164368069345E-01 -1.849673580896E-02
H67 -3.343343343797E-01  9.587845609343E-02  1.395700500092E-01
H68  3.343343343797E-01 -9.587845609343E-02 -1.395700500092E-01
H69 -2.915002768421E-01  8.060628187016E-02  3.001832131248E-01
H70  2.915002768421E-01 -8.060628187016E-02 -3.001832131248E-01
H71 -3.173881032656E-01  2.618773538954E-01  4.492643621149E-01
H72  3.173881032656E-01 -2.618773538954E-01 -4.492643621149E-01


#===END

data_OPT_STEP_16

_symmetry_space_group_name_H-M 'P 1'
_cell_length_a      7.66838766
_cell_length_b      6.21854035
_cell_length_c     16.03247379
_cell_angle_alpha  101.622573
_cell_angle_beta  112.341243
_cell_angle_gamma   85.793144

loop_
_atom_site_label
_atom_site_fract_x
_atom_site_fract_y
_atom_site_fract_z
C1  1.271638012859E-01  4.042622973177E-02  4.084653080158E-01
C2 -1.271638012859E-01 -4.042622973177E-02 -4.084653080158E-01
C3 -1.576710398267E-02 -2.665727362311E-01  2.822691524647E-01
C4  1.576710398267E-02  2.665727362311E-01 -2.822691524647E-01
C5  4.333243699241E-02 -1.758429176507E-01  3.743312840437E-01
C6 -4.333243699241E-02  1.758429176507E-01 -3.743312840437E-01
C7  1.492920302831E-01  1.600355780501E-01  3.494729762083E-01
C8 -1.492920302831E-01 -1.600355780501E-01 -3.494729762083E-01
C9  9.255846603767E-02  6.991133916618E-02  2.524089264366E-01
C10 -9.255846603767E-02 -6.991133916618E-02 -2.524089264366E-01
C11  1.172939429585E-01  1.861959778713E-01  1.913726947268E-01
C12 -1.172939429585E-01 -1.861959778713E-01 -1.913726947268E-01
C13  6.000268446239E-02  9.644170061233E-02  9.574597262880E-02
C14 -6.000268446239E-02 -9.644170061233E-02 -9.574597262880E-02
C15  8.511149591486E-02  2.118126113220E-01  3.370424305793E-02
C16 -8.511149591486E-02 -2.118126113220E-01 -3.370424305793E-02
C17 -2.744542836302E-02 -1.220044437498E-01  6.107183824882E-02
C18  2.744542836302E-02  1.220044437498E-01 -6.107183824882E-02
C19 -5.112389522214E-02 -2.383263032093E-01  1.240668103186E-01
C20  5.112389522214E-02  2.383263032093E-01 -1.240668103186E-01
C21  6.520077591517E-03 -1.485165077330E-01  2.178665461993E-01
C22 -6.520077591517E-03  1.485165077330E-01 -2.178665461993E-01
H23  1.727206762516E-01  1.105351512444E-01  4.830155793374E-01
H24 -1.727206762516E-01 -1.105351512444E-01 -4.830155793374E-01
H25 -8.175431388248E-02 -4.322589686162E-01  2.558307769893E-01
H26  8.175431388248E-02  4.322589686162E-01 -2.558307769893E-01
H27  2.694586388054E-02 -2.695379141573E-01  4.231605042694E-01
H28 -2.694586388054E-02  2.695379141573E-01 -4.231605042694E-01
H29  2.112526045491E-01  3.275418820152E-01  3.748201972640E-01
H30 -2.112526045491E-01 -3.275418820152E-01 -3.748201972640E-01
H31  1.843324963736E-01  3.514565360865E-01  2.178271583611E-01
H32 -1.843324963736E-01 -3.514565360865E-01 -2.178271583611E-01
H33  1.509143019259E-01  3.781387632855E-01  5.998287802129E-02
H34 -1.509143019259E-01 -3.781387632855E-01 -5.998287802129E-02
H35 -1.162255959241E-01 -4.048361387064E-01  9.778672999351E-02
H36  1.162255959241E-01  4.048361387064E-01 -9.778672999351E-02
C37 -4.437987738249E-01 -4.337940097041E-01  4.000744445244E-01
C38  4.437987738249E-01  4.337940097041E-01 -4.000744445244E-01
C39  4.979900671634E-01 -3.202050876979E-01  3.287454768427E-01
C40 -4.979900671634E-01  3.202050876979E-01 -3.287454768427E-01
C41 -4.866606926942E-01 -4.172617850748E-01  2.418500682260E-01
C42  4.866606926942E-01  4.172617850748E-01 -2.418500682260E-01
C43  4.576779216061E-01 -3.043747961605E-01  1.686478466699E-01
C44 -4.576779216061E-01  3.043747961605E-01 -1.686478466699E-01
C45  4.773233422097E-01 -3.990463387646E-01  8.397574501904E-02
C46 -4.773233422097E-01  3.990463387646E-01 -8.397574501904E-02
C47  4.239431614587E-01 -2.847110159854E-01  1.022195452730E-02
C48 -4.239431614587E-01  2.847110159854E-01 -1.022195452730E-02
C49 -4.448707354548E-01  3.791345014595E-01  7.336504795393E-02
C50  4.448707354548E-01 -3.791345014595E-01 -7.336504795393E-02
C51 -3.903041853632E-01  2.651941225160E-01  1.482367873846E-01
C52  3.903041853632E-01 -2.651941225160E-01 -1.482367873846E-01
C53 -4.095566984512E-01  3.609824375383E-01  2.312052543768E-01
C54  4.095566984512E-01 -3.609824375383E-01 -2.312052543768E-01
C55 -3.502381883660E-01  2.483543282660E-01  3.082212596669E-01
C56  3.502381883660E-01 -2.483543282660E-01 -3.082212596669E-01
C57 -3.672586401133E-01  3.474862619042E-01  3.896608662034E-01
C58  3.672586401133E-01 -3.474862619042E-01 -3.896608662034E-01
H59 -4.552735148002E-01 -3.566360275859E-01  4.664649485332E-01
H60  4.552735148002E-01  3.566360275859E-01 -4.664649485332E-01
H61  4.396311746586E-01 -1.515425218610E-01  3.371290878879E-01
H62 -4.396311746586E-01  1.515425218610E-01 -3.371290878879E-01
H63  3.988131497276E-01 -1.358157727369E-01  1.768252775593E-01
H64 -3.988131497276E-01  1.358157727369E-01 -1.768252775593E-01
H65  3.653406127350E-01 -1.160313650150E-01  1.845722241843E-02
H66 -3.653406127350E-01  1.160313650150E-01 -1.845722241843E-02
H67 -3.306615493121E-01  9.708944008917E-02  1.401928416889E-01
H68  3.306615493121E-01 -9.708944008917E-02 -1.401928416889E-01
H69 -2.894679457242E-01  8.111358873725E-02  3.004280741681E-01
H70  2.894679457242E-01 -8.111358873725E-02 -3.004280741681E-01
H71 -3.187366111089E-01  2.612696291088E-01  4.489004571013E-01
H72  3.187366111089E-01 -2.612696291088E-01 -4.489004571013E-01


#===END

data_OPT_STEP_17

_symmetry_space_group_name_H-M 'P 1'
_cell_length_a      7.68662541
_cell_length_b      6.20483842
_cell_length_c     16.03706649
_cell_angle_alpha  101.698397
_cell_angle_beta  112.306854
_cell_angle_gamma   85.756103

loop_
_atom_site_label
_atom_site_fract_x
_atom_site_fract_y
_atom_site_fract_z
C1  1.274496653838E-01  3.954876035147E-02  4.084880794302E-01
C2 -1.274496653838E-01 -3.954876035147E-02 -4.084880794302E-01
C3 -1.696296355238E-02 -2.669562406285E-01  2.819450025724E-01
C4  1.696296355238E-02  2.669562406285E-01 -2.819450025724E-01
C5  4.258799988507E-02 -1.765460550866E-01  3.740731734981E-01
C6 -4.258799988507E-02  1.765460550866E-01 -3.740731734981E-01
C7  1.512493939874E-01  1.583886200496E-01  3.496961779709E-01
C8 -1.512493939874E-01 -1.583886200496E-01 -3.496961779709E-01
C9  9.370958783770E-02  6.888432088724E-02  2.525186747385E-01
C10 -9.370958783770E-02 -6.888432088724E-02 -2.525186747385E-01
C11  1.194207017752E-01  1.848270299141E-01  1.916218677824E-01
C12 -1.194207017752E-01 -1.848270299141E-01 -1.916218677824E-01
C13  6.115041024624E-02  9.573678995120E-02  9.591647072166E-02
C14 -6.115041024624E-02 -9.573678995120E-02 -9.591647072166E-02
C15  8.567418517596E-02  2.120247523854E-01  3.385520849737E-02
C16 -8.567418517596E-02 -2.120247523854E-01 -3.385520849737E-02
C17 -2.703188702240E-02 -1.227626059985E-01  6.099222761429E-02
C18  2.703188702240E-02  1.227626059985E-01 -6.099222761429E-02
C19 -5.194036511511E-02 -2.386625004158E-01  1.238422869015E-01
C20  5.194036511511E-02  2.386625004158E-01 -1.238422869015E-01
C21  6.453722142451E-03 -1.493090808783E-01  2.177249883792E-01
C22 -6.453722142451E-03  1.493090808783E-01 -2.177249883792E-01
H23  1.721696491587E-01  1.102748967099E-01  4.830445828118E-01
H24 -1.721696491587E-01 -1.102748967099E-01 -4.830445828118E-01
H25 -8.391203569739E-02 -4.323554581140E-01  2.553069122589E-01
H26  8.391203569739E-02  4.323554581140E-01 -2.553069122589E-01
H27  2.574735747395E-02 -2.703315910395E-01  4.227609914544E-01
H28 -2.574735747395E-02  2.703315910395E-01 -4.227609914544E-01
H29  2.133279822350E-01  3.263147462775E-01  3.751258998999E-01
H30 -2.133279822350E-01 -3.263147462775E-01 -3.751258998999E-01
H31  1.864555318047E-01  3.505152387547E-01  2.181717909697E-01
H32 -1.864555318047E-01 -3.505152387547E-01 -2.181717909697E-01
H33  1.519163173814E-01  3.783307341443E-01  6.029910162279E-02
H34 -1.519163173814E-01 -3.783307341443E-01 -6.029910162279E-02
H35 -1.188675519207E-01 -4.043536797316E-01  9.730496927215E-02
H36  1.188675519207E-01  4.043536797316E-01 -9.730496927215E-02
C37 -4.458532369280E-01 -4.340188671092E-01  3.995526620735E-01
C38  4.458532369280E-01  4.340188671092E-01 -3.995526620735E-01
C39  4.961258283327E-01 -3.202316147443E-01  3.283011697115E-01
C40 -4.961258283327E-01  3.202316147443E-01 -3.283011697115E-01
C41 -4.871110813651E-01 -4.169329614686E-01  2.416933581629E-01
C42  4.871110813651E-01  4.169329614686E-01 -2.416933581629E-01
C43  4.573657121777E-01 -3.038181340899E-01  1.685614189740E-01
C44 -4.573657121777E-01  3.038181340899E-01 -1.685614189740E-01
C45  4.771766545353E-01 -3.987936119825E-01  8.392822802309E-02
C46 -4.771766545353E-01  3.987936119825E-01 -8.392822802309E-02
C47  4.232398556809E-01 -2.846880192123E-01  1.012087696790E-02
C48 -4.232398556809E-01  2.846880192123E-01 -1.012087696790E-02
C49 -4.449570255639E-01  3.789707751885E-01  7.331724847508E-02
C50  4.449570255639E-01 -3.789707751885E-01 -7.331724847508E-02
C51 -3.898956686190E-01  2.651589289646E-01  1.482320407582E-01
C52  3.898956686190E-01 -2.651589289646E-01 -1.482320407582E-01
C53 -4.091179485636E-01  3.612909492477E-01  2.311914074114E-01
C54  4.091179485636E-01 -3.612909492477E-01 -2.311914074114E-01
C55 -3.496424893417E-01  2.486917253610E-01  3.081667398834E-01
C56  3.496424893417E-01 -2.486917253610E-01 -3.081667398834E-01
C57 -3.671441854944E-01  3.480355417738E-01  3.894957023378E-01
C58  3.671441854944E-01 -3.480355417738E-01 -3.894957023378E-01
H59 -4.577353986169E-01 -3.563936247700E-01  4.660811798651E-01
H60  4.577353986169E-01  3.563936247700E-01 -4.660811798651E-01
H61  4.360696723208E-01 -1.520655161306E-01  3.363970120604E-01
H62 -4.360696723208E-01  1.520655161306E-01 -3.363970120604E-01
H63  3.972557502678E-01 -1.355188474043E-01  1.765348898000E-01
H64 -3.972557502678E-01  1.355188474043E-01 -1.765348898000E-01
H65  3.621915985361E-01 -1.170126229914E-01  1.792774937770E-02
H66 -3.621915985361E-01  1.170126229914E-01 -1.792774937770E-02
H67 -3.294920718910E-01  9.709302443970E-02  1.403401594229E-01
H68  3.294920718910E-01 -9.709302443970E-02 -1.403401594229E-01
H69 -2.881042136899E-01  8.142718386079E-02  3.005109132891E-01
H70  2.881042136899E-01 -8.142718386079E-02 -3.005109132891E-01
H71 -3.192966377659E-01  2.612720761875E-01  4.485620369509E-01
H72  3.192966377659E-01 -2.612720761875E-01 -4.485620369509E-01


#===END

data_OPT_STEP_18

_symmetry_space_group_name_H-M 'P 1'
_cell_length_a      7.70991306
_cell_length_b      6.18607708
_cell_length_c     16.04208905
_cell_angle_alpha  101.767928
_cell_angle_beta  112.262142
_cell_angle_gamma   85.706165

loop_
_atom_site_label
_atom_site_fract_x
_atom_site_fract_y
_atom_site_fract_z
C1  1.276029848326E-01  3.959994325537E-02  4.084122405253E-01
C2 -1.276029848326E-01 -3.959994325537E-02 -4.084122405253E-01
C3 -1.837553837801E-02 -2.669016837168E-01  2.816749954563E-01
C4  1.837553837801E-02  2.669016837168E-01 -2.816749954563E-01
C5  4.153839984886E-02 -1.763805058210E-01  3.738387546850E-01
C6 -4.153839984886E-02  1.763805058210E-01 -3.738387546850E-01
C7  1.521125601362E-01  1.582339387671E-01  3.497287531784E-01
C8 -1.521125601362E-01 -1.582339387671E-01 -3.497287531784E-01
C9  9.392744177879E-02  6.886706636957E-02  2.524833663404E-01
C10 -9.392744177879E-02 -6.886706636957E-02 -2.524833663404E-01
C11  1.196268949358E-01  1.851727630580E-01  1.916477379488E-01
C12 -1.196268949358E-01 -1.851727630580E-01 -1.916477379488E-01
C13  6.069447272209E-02  9.625596930508E-02  9.590152487248E-02
C14 -6.069447272209E-02 -9.625596930508E-02 -9.590152487248E-02
C15  8.613146657376E-02  2.123849128331E-01  3.397560320274E-02
C16 -8.613146657376E-02 -2.123849128331E-01 -3.397560320274E-02
C17 -2.744693894695E-02 -1.228066806702E-01  6.088002018105E-02
C18  2.744693894695E-02  1.228066806702E-01 -6.088002018105E-02
C19 -5.232249881006E-02 -2.393088871599E-01  1.236784262204E-01
C20  5.232249881006E-02  2.393088871599E-01 -1.236784262204E-01
C21  5.952211726890E-03 -1.495368101512E-01  2.175690800506E-01
C22 -5.952211726890E-03  1.495368101512E-01 -2.175690800506E-01
H23  1.732552072144E-01  1.100367015529E-01  4.830311706440E-01
H24 -1.732552072144E-01 -1.100367015528E-01 -4.830311706440E-01
H25 -8.547163200801E-02 -4.326521973341E-01  2.549903455684E-01
H26  8.547163200801E-02  4.326521973341E-01 -2.549903455684E-01
H27  2.383943145017E-02 -2.694988542675E-01  4.225019834689E-01
H28 -2.383943145017E-02  2.694988542675E-01 -4.225019834689E-01
H29  2.145660932791E-01  3.266482462020E-01  3.753244942719E-01
H30 -2.145660932791E-01 -3.266482462020E-01 -3.753244942719E-01
H31  1.876314027471E-01  3.506936213385E-01  2.183013773051E-01
H32 -1.876314027471E-01 -3.506936213385E-01 -2.183013773051E-01
H33  1.545273105520E-01  3.776494921555E-01  6.066194629524E-02
H34 -1.545273105520E-01 -3.776494921555E-01 -6.066194629524E-02
H35 -1.192939644191E-01 -4.054253325089E-01  9.706568955502E-02
H36  1.192939644191E-01  4.054253325089E-01 -9.706568955502E-02
C37 -4.463160227695E-01 -4.338652227254E-01  3.993671204587E-01
C38  4.463160227695E-01  4.338652227254E-01 -3.993671204587E-01
C39  4.954547217915E-01 -3.199904214203E-01  3.281358678002E-01
C40 -4.954547217915E-01  3.199904214203E-01 -3.281358678002E-01
C41 -4.876400899137E-01 -4.169944065267E-01  2.415436751138E-01
C42  4.876400899137E-01  4.169944065267E-01 -2.415436751138E-01
C43  4.563140034150E-01 -3.038276918541E-01  1.683906487436E-01
C44 -4.563140034150E-01  3.038276918541E-01 -1.683906487436E-01
C45  4.765152556957E-01 -3.988742417859E-01  8.381026740483E-02
C46 -4.765152556957E-01  3.988742417859E-01 -8.381026740483E-02
C47  4.229257977008E-01 -2.841974542123E-01  1.014692173228E-02
C48 -4.229257977008E-01  2.841974542123E-01 -1.014692173228E-02
C49 -4.441825662683E-01  3.789804001830E-01  7.339212024861E-02
C50  4.441825662683E-01 -3.789804001830E-01 -7.339212024861E-02
C51 -3.892460535758E-01  2.648105084257E-01  1.482072861449E-01
C52  3.892460535758E-01 -2.648105084257E-01 -1.482072861449E-01
C53 -4.087780213824E-01  3.610158604476E-01  2.311205772278E-01
C54  4.087780213824E-01 -3.610158604476E-01 -2.311205772278E-01
C55 -3.492265648485E-01  2.482355493284E-01  3.080533205597E-01
C56  3.492265648485E-01 -2.482355493284E-01 -3.080533205597E-01
C57 -3.671150543048E-01  3.476954867242E-01  3.893139244745E-01
C58  3.671150543048E-01 -3.476954867242E-01 -3.893139244745E-01
H59 -4.591562483220E-01 -3.562341791105E-01  4.658381617294E-01
H60  4.591562483220E-01  3.562341791105E-01 -4.658381617294E-01
H61  4.347734183462E-01 -1.516718077655E-01  3.361508472498E-01
H62 -4.347734183462E-01  1.516718077655E-01 -3.361508472498E-01
H63  3.953039395470E-01 -1.355135832746E-01  1.762709356028E-01
H64 -3.953039395470E-01  1.355135832746E-01 -1.762709356028E-01
H65  3.630762056836E-01 -1.153010263588E-01  1.824307045376E-02
H66 -3.630762056836E-01  1.153010263588E-01 -1.824307045376E-02
H67 -3.280888823804E-01  9.664575450451E-02  1.404143672827E-01
H68  3.280888823804E-01 -9.664575450451E-02 -1.404143672827E-01
H69 -2.867821259302E-01  8.091835692934E-02  3.005248455910E-01
H70  2.867821259302E-01 -8.091835692934E-02 -3.005248455910E-01
H71 -3.200177024345E-01  2.602316186701E-01  4.481783056622E-01
H72  3.200177024345E-01 -2.602316186701E-01 -4.481783056622E-01


#===END

data_OPT_STEP_19

_symmetry_space_group_name_H-M 'P 1'
_cell_length_a      7.73697439
_cell_length_b      6.17063382
_cell_length_c     16.04723563
_cell_angle_alpha  101.823249
_cell_angle_beta  112.257929
_cell_angle_gamma   85.671060

loop_
_atom_site_label
_atom_site_fract_x
_atom_site_fract_y
_atom_site_fract_z
C1  1.273328170325E-01  4.062187729227E-02  4.083445636774E-01
C2 -1.273328170325E-01 -4.062187729227E-02 -4.083445636774E-01
C3 -1.973105360170E-02 -2.662683018499E-01  2.814673215015E-01
C4  1.973105360170E-02  2.662683018499E-01 -2.814673215015E-01
C5  4.058394483460E-02 -1.756276932810E-01  3.736728767777E-01
C6 -4.058394483460E-02  1.756276932810E-01 -3.736728767777E-01
C7  1.515357716846E-01  1.596623038701E-01  3.496969616437E-01
C8 -1.515357716846E-01 -1.596623038701E-01 -3.496969616437E-01
C9  9.319840149348E-02  6.992231844594E-02  2.523994061317E-01
C10 -9.319840149348E-02 -6.992231844594E-02 -2.523994061317E-01
C11  1.195818820185E-01  1.859708919706E-01  1.916681586281E-01
C12 -1.195818820185E-01 -1.859708919706E-01 -1.916681586281E-01
C13  6.058031462983E-02  9.664704543996E-02  9.587778887291E-02
C14 -6.058031462983E-02 -9.664704543996E-02 -9.587778887291E-02
C15  8.645259729052E-02  2.127721099359E-01  3.405662880523E-02
C16 -8.645259729052E-02 -2.127721099359E-01 -3.405662880523E-02
C17 -2.822238003919E-02 -1.224331395132E-01  6.078470916341E-02
C18  2.822238003919E-02  1.224331395132E-01 -6.078470916341E-02
C19 -5.394053228197E-02 -2.386188923383E-01  1.234736954646E-01
C20  5.394053228197E-02  2.386188923383E-01 -1.234736954646E-01
C21  4.681700323327E-03 -1.486832395585E-01  2.173962344044E-01
C22 -4.681700323327E-03  1.486832395585E-01 -2.173962344044E-01
H23  1.740240040959E-01  1.107717579045E-01  4.830342671557E-01
H24 -1.740240040959E-01 -1.107717579045E-01 -4.830342671557E-01
H25 -8.748942311348E-02 -4.319571828373E-01  2.547140363895E-01
H26  8.748942311348E-02  4.319571828373E-01 -2.547140363895E-01
H27  2.193438770291E-02 -2.679754612721E-01  4.223109005629E-01
H28 -2.193438770291E-02  2.679754612721E-01 -4.223109005629E-01
H29  2.149555288990E-01  3.281388701072E-01  3.755040192225E-01
H30 -2.149555288990E-01 -3.281388701072E-01 -3.755040192225E-01
H31  1.888992896683E-01  3.510150003391E-01  2.184420883746E-01
H32 -1.888992896683E-01 -3.510150003391E-01 -2.184420883746E-01
H33  1.545086040633E-01  3.786819196198E-01  6.078302627909E-02
H34 -1.545086040633E-01 -3.786819196198E-01 -6.078302627909E-02
H35 -1.211852317020E-01 -4.049423863383E-01  9.680075214710E-02
H36  1.211852317020E-01  4.049423863383E-01 -9.680075214710E-02
C37 -4.462784933504E-01 -4.335698418095E-01  3.993445258625E-01
C38  4.462784933504E-01  4.335698418095E-01 -3.993445258625E-01
C39  4.959684497903E-01 -3.192381813301E-01  3.282292914759E-01
C40 -4.959684497903E-01  3.192381813301E-01 -3.282292914759E-01
C41 -4.872539132238E-01 -4.166524896877E-01  2.415901463862E-01
C42  4.872539132238E-01  4.166524896877E-01 -2.415901463862E-01
C43  4.565846655534E-01 -3.032126617728E-01  1.684713602742E-01
C44 -4.565846655534E-01  3.032126617728E-01 -1.684713602742E-01
C45  4.766153430272E-01 -3.985801807396E-01  8.383355738955E-02
C46 -4.766153430272E-01  3.985801807396E-01 -8.383355738955E-02
C47  4.219124659894E-01 -2.841918528446E-01  1.001480621395E-02
C48 -4.219124659894E-01  2.841918528446E-01 -1.001480621395E-02
C49 -4.434557885258E-01  3.790123275071E-01  7.348194975852E-02
C50  4.434557885258E-01 -3.790123275071E-01 -7.348194975852E-02
C51 -3.885694074673E-01  2.645602719225E-01  1.482423045522E-01
C52  3.885694074673E-01 -2.645602719225E-01 -1.482423045522E-01
C53 -4.083504180613E-01  3.607701338683E-01  2.311230933699E-01
C54  4.083504180613E-01 -3.607701338683E-01 -2.311230933699E-01
C55 -3.498808215063E-01  2.473328337127E-01  3.078490160672E-01
C56  3.498808215063E-01 -2.473328337127E-01 -3.078490160672E-01
C57 -3.679066150147E-01  3.468797547266E-01  3.890931175571E-01
C58  3.679066150147E-01 -3.468797547266E-01 -3.890931175571E-01
H59 -4.600500031152E-01 -3.563003680418E-01  4.656047768842E-01
H60  4.600500031152E-01  3.563003680418E-01 -4.656047768842E-01
H61  4.364023659837E-01 -1.500183694769E-01  3.364584916487E-01
H62 -4.364023659837E-01  1.500183694769E-01 -3.364584916487E-01
H63  3.961264044385E-01 -1.342632869514E-01  1.765034140067E-01
H64 -3.961264044385E-01  1.342632869514E-01 -1.765034140067E-01
H65  3.608354925167E-01 -1.155667855262E-01  1.792380391127E-02
H66 -3.608354925167E-01  1.155667855262E-01 -1.792380391127E-02
H67 -3.271999709345E-01  9.609634458480E-02  1.404556608972E-01
H68  3.271999709345E-01 -9.609634458480E-02 -1.404556608972E-01
H69 -2.886291377434E-01  7.887157199458E-02  3.000918857568E-01
H70  2.886291377434E-01 -7.887157199458E-02 -3.000918857568E-01
H71 -3.215067071792E-01  2.587962312214E-01  4.477830232678E-01
H72  3.215067071792E-01 -2.587962312214E-01 -4.477830232678E-01


#===END

data_OPT_STEP_20

_symmetry_space_group_name_H-M 'P 1'
_cell_length_a      7.76795456
_cell_length_b      6.15564766
_cell_length_c     16.04954879
_cell_angle_alpha  101.888398
_cell_angle_beta  112.262372
_cell_angle_gamma   85.704824

loop_
_atom_site_label
_atom_site_fract_x
_atom_site_fract_y
_atom_site_fract_z
C1  1.270627523858E-01  4.060815191679E-02  4.082642723268E-01
C2 -1.270627523858E-01 -4.060815191679E-02 -4.082642723268E-01
C3 -1.999635531160E-02 -2.672051838217E-01  2.811531306196E-01
C4  1.999635531160E-02  2.672051838217E-01 -2.811531306196E-01
C5  3.987196336680E-02 -1.761518898194E-01  3.733995650561E-01
C6 -3.987196336680E-02  1.761518898194E-01 -3.733995650561E-01
C7  1.513220762530E-01  1.600703333241E-01  3.497254996744E-01
C8 -1.513220762530E-01 -1.600703333241E-01 -3.497254996744E-01
C9  9.277383774437E-02  7.020247946986E-02  2.523672645839E-01
C10 -9.277383774437E-02 -7.020247946986E-02 -2.523672645839E-01
C11  1.196715644413E-01  1.864093575415E-01  1.918062357353E-01
C12 -1.196715644413E-01 -1.864093575415E-01 -1.918062357353E-01
C13  6.143987003313E-02  9.622706026320E-02  9.595646524229E-02
C14 -6.143987003313E-02 -9.622706026320E-02 -9.595646524229E-02
C15  8.792835772450E-02  2.123314886135E-01  3.431829780702E-02
C16 -8.792835772450E-02 -2.123314886135E-01 -3.431829780702E-02
C17 -2.847841304237E-02 -1.225823013126E-01  6.064098038602E-02
C18  2.847841304237E-02  1.225823013126E-01 -6.064098038602E-02
C19 -5.406852764385E-02 -2.392217769274E-01  1.232556928798E-01
C20  5.406852764385E-02  2.392217769274E-01 -1.232556928798E-01
C21  4.856100678079E-03 -1.492787253098E-01  2.172410241587E-01
C22 -4.856100678079E-03  1.492787253098E-01 -2.172410241587E-01
H23  1.731555666566E-01  1.114151596281E-01  4.829599496121E-01
H24 -1.731555666566E-01 -1.114151596281E-01 -4.829599496121E-01
H25 -8.881976742566E-02 -4.326454369033E-01  2.541963887368E-01
H26  8.881976742566E-02  4.326454369033E-01 -2.541963887368E-01
H27  2.062106091584E-02 -2.687101144666E-01  4.218689604925E-01
H28 -2.062106091584E-02  2.687101144666E-01 -4.218689604925E-01
H29  2.161625021417E-01  3.281378122881E-01  3.756860336889E-01
H30 -2.161625021417E-01 -3.281378122881E-01 -3.756860336889E-01
H31  1.882671068119E-01  3.525116836441E-01  2.187082042571E-01
H32 -1.882671068119E-01 -3.525116836441E-01 -2.187082042571E-01
H33  1.563220938516E-01  3.785120769740E-01  6.116937956529E-02
H34 -1.563220938516E-01 -3.785120769740E-01 -6.116937956529E-02
H35 -1.221821076387E-01 -4.054161957217E-01  9.642272579006E-02
H36  1.221821076387E-01  4.054161957217E-01 -9.642272579006E-02
C37 -4.473209142334E-01 -4.333546457493E-01  3.992383180282E-01
C38  4.473209142334E-01  4.333546457493E-01 -3.992383180282E-01
C39  4.951793969585E-01 -3.190109709783E-01  3.281273536804E-01
C40 -4.951793969585E-01  3.190109709783E-01 -3.281273536804E-01
C41 -4.875187513158E-01 -4.164377937805E-01  2.415629707948E-01
C42  4.875187513158E-01  4.164377937805E-01 -2.415629707948E-01
C43  4.558415408924E-01 -3.032239086745E-01  1.683579665429E-01
C44 -4.558415408924E-01  3.032239086745E-01 -1.683579665429E-01
C45  4.767946819321E-01 -3.982648432202E-01  8.388613850437E-02
C46 -4.767946819321E-01  3.982648432202E-01 -8.388613850437E-02
C47  4.229712309768E-01 -2.831817030756E-01  1.024650954827E-02
C48 -4.229712309768E-01  2.831817030756E-01 -1.024650954827E-02
C49 -4.442777900920E-01  3.783714447740E-01  7.330877864292E-02
C50  4.442777900920E-01 -3.783714447740E-01 -7.330877864292E-02
C51 -3.885140501237E-01  2.643871905722E-01  1.482669760450E-01
C52  3.885140501237E-01 -2.643871905722E-01 -1.482669760450E-01
C53 -4.078139082432E-01  3.611263372546E-01  2.312395902253E-01
C54  4.078139082432E-01 -3.611263372546E-01 -2.312395902253E-01
C55 -3.492767038614E-01  2.477913731459E-01  3.080534713065E-01
C56  3.492767038614E-01 -2.477913731459E-01 -3.080534713065E-01
C57 -3.687856779858E-01  3.468726026099E-01  3.890751137098E-01
C58  3.687856779858E-01 -3.468726026099E-01 -3.890751137098E-01
H59 -4.616702586463E-01 -3.561876869774E-01  4.652508453557E-01
H60  4.616702586463E-01  3.561876869774E-01 -4.652508453557E-01
H61  4.351962322144E-01 -1.497997471097E-01  3.362598778586E-01
H62 -4.351962322144E-01  1.497997471097E-01 -3.362598778586E-01
H63  3.951074187983E-01 -1.342106445347E-01  1.763552996809E-01
H64 -3.951074187983E-01  1.342106445347E-01 -1.763552996809E-01
H65  3.625602137033E-01 -1.139120454442E-01  1.831041444477E-02
H66 -3.625602137033E-01  1.139120454442E-01 -1.831041444477E-02
H67 -3.279840398519E-01  9.516943340540E-02  1.403030650689E-01
H68  3.279840398519E-01 -9.516943340540E-02 -1.403030650689E-01
H69 -2.878177809488E-01  7.924091952592E-02  3.003761366102E-01
H70  2.878177809488E-01 -7.924091952592E-02 -3.003761366102E-01
H71 -3.229049936380E-01  2.586286261132E-01  4.477158314903E-01
H72  3.229049936380E-01 -2.586286261132E-01 -4.477158314903E-01


#===END

data_OPT_STEP_21

_symmetry_space_group_name_H-M 'P 1'
_cell_length_a      7.80102739
_cell_length_b      6.13858932
_cell_length_c     16.05026617
_cell_angle_alpha  101.934201
_cell_angle_beta  112.292732
_cell_angle_gamma   85.754396

loop_
_atom_site_label
_atom_site_fract_x
_atom_site_fract_y
_atom_site_fract_z
C1  1.270676256411E-01  4.025929569370E-02  4.082874067651E-01
C2 -1.270676256411E-01 -4.025929569370E-02 -4.082874067651E-01
C3 -2.057479507637E-02 -2.677707977950E-01  2.809823989075E-01
C4  2.057479507637E-02  2.677707977950E-01 -2.809823989075E-01
C5  3.935947165212E-02 -1.767162515690E-01  3.732907459714E-01
C6 -3.935947165212E-02  1.767162515690E-01 -3.732907459714E-01
C7  1.516049776397E-01  1.599692592937E-01  3.498318063315E-01
C8 -1.516049776397E-01 -1.599692592937E-01 -3.498318063315E-01
C9  9.278752896713E-02  7.018550129332E-02  2.524202394682E-01
C10 -9.278752896713E-02 -7.018550129332E-02 -2.524202394682E-01
C11  1.198520640496E-01  1.865778114867E-01  1.919258866297E-01
C12 -1.198520640496E-01 -1.865778114867E-01 -1.919258866297E-01
C13  6.103254336663E-02  9.664333846643E-02  9.600161181881E-02
C14 -6.103254336663E-02 -9.664333846643E-02 -9.600161181881E-02
C15  8.764695800040E-02  2.129429016961E-01  3.445387412487E-02
C16 -8.764695800040E-02 -2.129429016961E-01 -3.445387412487E-02
C17 -2.873285469046E-02 -1.227217173884E-01  6.057950085667E-02
C18  2.873285469046E-02  1.227217173884E-01 -6.057950085667E-02
C19 -5.427396391216E-02 -2.397672473937E-01  1.231016890055E-01
C20  5.427396391216E-02  2.397672473937E-01 -1.231016890055E-01
C21  4.247386897229E-03 -1.494045499290E-01  2.171366131625E-01
C22 -4.247386897229E-03  1.494045499290E-01 -2.171366131625E-01
H23  1.739907799848E-01  1.105739052690E-01  4.830706743270E-01
H24 -1.739907799848E-01 -1.105739052690E-01 -4.830706743270E-01
H25 -8.866131833324E-02 -4.341274466622E-01  2.539632932572E-01
H26  8.866131833324E-02  4.341274466622E-01 -2.539632932572E-01
H27  2.044183989808E-02 -2.702492796275E-01  4.216377820211E-01
H28 -2.044183989808E-02  2.702492796275E-01 -4.216377820211E-01
H29  2.166918325286E-01  3.282492357916E-01  3.758806035755E-01
H30 -2.166918325286E-01 -3.282492357916E-01 -3.758806035755E-01
H31  1.885328992562E-01  3.530179129903E-01  2.189120323333E-01
H32 -1.885328992562E-01 -3.530179129903E-01 -2.189120323333E-01
H33  1.561148220217E-01  3.794905874676E-01  6.137637634632E-02
H34 -1.561148220217E-01 -3.794905874676E-01 -6.137637634632E-02
H35 -1.221075316882E-01 -4.065754516205E-01  9.618552149265E-02
H36  1.221075316882E-01  4.065754516205E-01 -9.618552149265E-02
C37 -4.486915087952E-01 -4.336876903739E-01  3.990527140668E-01
C38  4.486915087952E-01  4.336876903739E-01 -3.990527140668E-01
C39  4.944770873509E-01 -3.188580329835E-01  3.280327400959E-01
C40 -4.944770873509E-01  3.188580329835E-01 -3.280327400959E-01
C41 -4.876694533547E-01 -4.161872697645E-01  2.415707570890E-01
C42  4.876694533547E-01  4.161872697645E-01 -2.415707570890E-01
C43  4.569622021561E-01 -3.021113145131E-01  1.685749647962E-01
C44 -4.569622021561E-01  3.021113145131E-01 -1.685749647962E-01
C45  4.767202811422E-01 -3.980930818805E-01  8.386703478981E-02
C46 -4.767202811422E-01  3.980930818805E-01 -8.386703478981E-02
C47  4.223889953498E-01 -2.831934112733E-01  1.010889373070E-02
C48 -4.223889953498E-01  2.831934112733E-01 -1.010889373070E-02
C49 -4.439847600857E-01  3.784593464617E-01  7.338833944295E-02
C50  4.439847600857E-01 -3.784593464617E-01 -7.338833944295E-02
C51 -3.887756349829E-01  2.639836412120E-01  1.482632988823E-01
C52  3.887756349829E-01 -2.639836412120E-01 -1.482632988823E-01
C53 -4.088625163946E-01  3.605560477718E-01  2.311224556356E-01
C54  4.088625163946E-01 -3.605560477718E-01 -2.311224556356E-01
C55 -3.502271410425E-01  2.471296852306E-01  3.080061811038E-01
C56  3.502271410425E-01 -2.471296852306E-01 -3.080061811038E-01
C57 -3.697081397003E-01  3.465733517380E-01  3.890308041229E-01
C58  3.697081397003E-01 -3.465733517380E-01 -3.890308041229E-01
H59 -4.626059300286E-01 -3.561663748289E-01  4.650584259377E-01
H60  4.626059300286E-01  3.561663748289E-01 -4.650584259377E-01
H61  4.341594708395E-01 -1.495385206048E-01  3.361041162532E-01
H62 -4.341594708395E-01  1.495385206048E-01 -3.361041162532E-01
H63  3.969034183678E-01 -1.324680055519E-01  1.766690791014E-01
H64 -3.969034183678E-01  1.324680055519E-01 -1.766690791014E-01
H65  3.616923908048E-01 -1.138446684652E-01  1.810380080118E-02
H66 -3.616923908048E-01  1.138446684652E-01 -1.810380080118E-02
H67 -3.280529482653E-01  9.463793440654E-02  1.403326876086E-01
H68  3.280529482653E-01 -9.463793440654E-02 -1.403326876086E-01
H69 -2.880911099877E-01  7.879564035145E-02  3.004752541423E-01
H70  2.880911099877E-01 -7.879564035145E-02 -3.004752541423E-01
H71 -3.236064860975E-01  2.585135907081E-01  4.477744709576E-01
H72  3.236064860975E-01 -2.585135907081E-01 -4.477744709576E-01


#===END

data_OPT_STEP_22

_symmetry_space_group_name_H-M 'P 1'
_cell_length_a      7.83004143
_cell_length_b      6.11916332
_cell_length_c     16.05330447
_cell_angle_alpha  101.942064
_cell_angle_beta  112.313160
_cell_angle_gamma   85.809286

loop_
_atom_site_label
_atom_site_fract_x
_atom_site_fract_y
_atom_site_fract_z
C1  1.263486297269E-01  4.060486431376E-02  4.082937442812E-01
C2 -1.263486297269E-01 -4.060486431376E-02 -4.082937442812E-01
C3 -2.073073021936E-02 -2.686374822837E-01  2.808939418918E-01
C4  2.073073021936E-02  2.686374822837E-01 -2.808939418918E-01
C5  3.943560223824E-02 -1.775814476224E-01  3.732441080446E-01
C6 -3.943560223824E-02  1.775814476224E-01 -3.732441080446E-01
C7  1.515910806570E-01  1.602254725468E-01  3.499149960127E-01
C8 -1.515910806570E-01 -1.602254725468E-01 -3.499149960127E-01
C9  9.299346134907E-02  7.014840288449E-02  2.524698546360E-01
C10 -9.299346134907E-02 -7.014840288449E-02 -2.524698546360E-01
C11  1.199668863247E-01  1.869619503006E-01  1.920027320869E-01
C12 -1.199668863247E-01 -1.869619503006E-01 -1.920027320869E-01
C13  6.103166833401E-02  9.692845009838E-02  9.604392141292E-02
C14 -6.103166833401E-02 -9.692845009838E-02 -9.604392141292E-02
C15  8.763658382938E-02  2.136130647783E-01  3.450943828568E-02
C16 -8.763658382938E-02 -2.136130647783E-01 -3.450943828568E-02
C17 -2.904234484819E-02 -1.229380081035E-01  6.053799306609E-02
C18  2.904234484819E-02  1.229380081035E-01 -6.053799306609E-02
C19 -5.525218371833E-02 -2.398705163488E-01  1.229806699713E-01
C20  5.525218371833E-02  2.398705163488E-01 -1.229806699713E-01
C21  3.808311027862E-03 -1.496948929853E-01  2.170621600991E-01
C22 -3.808311027862E-03  1.496948929853E-01 -2.170621600991E-01
H23  1.728826513326E-01  1.113502447618E-01  4.830795453981E-01
H24 -1.728826513326E-01 -1.113502447618E-01 -4.830795453981E-01
H25 -8.877026716251E-02 -4.355097719554E-01  2.538068377229E-01
H26  8.877026716251E-02  4.355097719554E-01 -2.538068377229E-01
H27  2.052335142352E-02 -2.715162741437E-01  4.215345876236E-01
H28 -2.052335142352E-02  2.715162741437E-01 -4.215345876236E-01
H29  2.168152438490E-01  3.289395228350E-01  3.760710998723E-01
H30 -2.168152438490E-01 -3.289395228350E-01 -3.760710998723E-01
H31  1.893814798911E-01  3.533095336634E-01  2.190666302382E-01
H32 -1.893814798911E-01 -3.533095336634E-01 -2.190666302382E-01
H33  1.563171117030E-01  3.804390361675E-01  6.148594902270E-02
H34 -1.563171117030E-01 -3.804390361675E-01 -6.148594902270E-02
H35 -1.234433955887E-01 -4.069325173931E-01  9.599143478531E-02
H36  1.234433955887E-01  4.069325173931E-01 -9.599143478531E-02
C37 -4.493540077753E-01 -4.336914559077E-01  3.988674177300E-01
C38  4.493540077753E-01  4.336914559077E-01 -3.988674177300E-01
C39  4.935808737707E-01 -3.187690026596E-01  3.277857489993E-01
C40 -4.935808737707E-01  3.187690026596E-01 -3.277857489993E-01
C41 -4.890758008266E-01 -4.166748807521E-01  2.412595799872E-01
C42  4.890758008266E-01  4.166748807521E-01 -2.412595799872E-01
C43  4.551619540491E-01 -3.026948213222E-01  1.681492729415E-01
C44 -4.551619540491E-01  3.026948213222E-01 -1.681492729415E-01
C45  4.762065450257E-01 -3.981454843030E-01  8.373561896378E-02
C46 -4.762065450257E-01  3.981454843030E-01 -8.373561896378E-02
C47  4.221613367715E-01 -2.829314314364E-01  9.996824248281E-03
C48 -4.221613367715E-01  2.829314314364E-01 -9.996824248281E-03
C49 -4.440991234180E-01  3.782155155041E-01  7.340373812772E-02
C50  4.440991234180E-01 -3.782155155041E-01 -7.340373812772E-02
C51 -3.894339548460E-01  2.632431885664E-01  1.481902861452E-01
C52  3.894339548460E-01 -2.632431885664E-01 -1.481902861452E-01
C53 -4.099247863768E-01  3.598248636669E-01  2.309472876717E-01
C54  4.099247863768E-01 -3.598248636669E-01 -2.309472876717E-01
C55 -3.514442361085E-01  2.461150302074E-01  3.078099033477E-01
C56  3.514442361085E-01 -2.461150302074E-01 -3.078099033477E-01
C57 -3.706001253228E-01  3.459395781858E-01  3.888442615864E-01
C58  3.706001253228E-01 -3.459395781858E-01 -3.888442615864E-01
H59 -4.630539055223E-01 -3.558998759773E-01  4.649895088880E-01
H60  4.630539055223E-01  3.558998759773E-01 -4.649895088880E-01
H61  4.335932559738E-01 -1.489151015534E-01  3.358578117728E-01
H62 -4.335932559738E-01  1.489151015534E-01 -3.358578117728E-01
H63  3.938936766857E-01 -1.333162841165E-01  1.759683375221E-01
H64 -3.938936766857E-01  1.333162841165E-01 -1.759683375221E-01
H65  3.610935732159E-01 -1.134557902467E-01  1.787130127330E-02
H66 -3.610935732159E-01  1.134557902467E-01 -1.787130127330E-02
H67 -3.279169468072E-01  9.401703611226E-02  1.404625898895E-01
H68  3.279169468072E-01 -9.401703611226E-02 -1.404625898895E-01
H69 -2.893425415163E-01  7.741674823156E-02  3.003070165735E-01
H70  2.893425415163E-01 -7.741674823156E-02 -3.003070165735E-01
H71 -3.243250798409E-01  2.578446656747E-01  4.476415377737E-01
H72  3.243250798409E-01 -2.578446656747E-01 -4.476415377737E-01


#===END

data_OPT_STEP_23

_symmetry_space_group_name_H-M 'P 1'
_cell_length_a      7.83743953
_cell_length_b      6.09290692
_cell_length_c     16.05282867
_cell_angle_alpha  101.918142
_cell_angle_beta  112.275423
_cell_angle_gamma   85.818602

loop_
_atom_site_label
_atom_site_fract_x
_atom_site_fract_y
_atom_site_fract_z
C1  1.252465998357E-01  4.071259558131E-02  4.081747761419E-01
C2 -1.252465998357E-01 -4.071259558131E-02 -4.081747761419E-01
C3 -2.264152273199E-02 -2.689315836714E-01  2.807351844283E-01
C4  2.264152273199E-02  2.689315836714E-01 -2.807351844283E-01
C5  3.781096236263E-02 -1.779144030595E-01  3.730852681891E-01
C6 -3.781096236263E-02  1.779144030595E-01 -3.730852681891E-01
C7  1.509032826981E-01  1.607027495495E-01  3.498472284001E-01
C8 -1.509032826981E-01 -1.607027495495E-01 -3.498472284001E-01
C9  9.218704216759E-02  7.058317228433E-02  2.523943258105E-01
C10 -9.218704216759E-02 -7.058317228433E-02 -2.523943258105E-01
C11  1.194438887355E-01  1.877673051571E-01  1.919549604162E-01
C12 -1.194438887355E-01 -1.877673051571E-01 -1.919549604162E-01
C13  6.084210501930E-02  9.732172518243E-02  9.601513251496E-02
C14 -6.084210501930E-02 -9.732172518243E-02 -9.601513251496E-02
C15  8.795481231559E-02  2.142445822794E-01  3.450780683818E-02
C16 -8.795481231559E-02 -2.142445822794E-01 -3.450780683818E-02
C17 -2.949390657855E-02 -1.232668938856E-01  6.051157567940E-02
C18  2.949390657855E-02  1.232668938856E-01 -6.051157567940E-02
C19 -5.638178344719E-02 -2.403231448294E-01  1.228987938160E-01
C20  5.638178344719E-02  2.403231448294E-01 -1.228987938160E-01
C21  2.526937253266E-03 -1.498325125313E-01  2.169565635659E-01
C22 -2.526937253266E-03  1.498325125313E-01 -2.169565635659E-01
H23  1.719504364056E-01  1.114887952990E-01  4.829641413820E-01
H24 -1.719504364056E-01 -1.114887952990E-01 -4.829641413820E-01
H25 -9.127353925251E-02 -4.360662041341E-01  2.536039968877E-01
H26  9.127353925251E-02  4.360662041341E-01 -2.536039968877E-01
H27  1.866448708104E-02 -2.721380938128E-01  4.213530844466E-01
H28 -1.866448708104E-02  2.721380938128E-01 -4.213530844466E-01
H29  2.164765415114E-01  3.299059770056E-01  3.761061152556E-01
H30 -2.164765415114E-01 -3.299059770056E-01 -3.761061152556E-01
H31  1.889341090322E-01  3.546730334967E-01  2.190114296728E-01
H32 -1.889341090322E-01 -3.546730334967E-01 -2.190114296728E-01
H33  1.567234077428E-01  3.815937319897E-01  6.147672601053E-02
H34 -1.567234077428E-01 -3.815937319897E-01 -6.147672601053E-02
H35 -1.246260578604E-01 -4.079987369474E-01  9.591370482587E-02
H36  1.246260578604E-01  4.079987369474E-01 -9.591370482587E-02
C37 -4.490323250536E-01 -4.332979025289E-01  3.988938465909E-01
C38  4.490323250536E-01  4.332979025289E-01 -3.988938465909E-01
C39  4.936076583269E-01 -3.180177216936E-01  3.277682803704E-01
C40 -4.936076583269E-01  3.180177216936E-01 -3.277682803704E-01
C41 -4.887171124721E-01 -4.161311443331E-01  2.413067538019E-01
C42  4.887171124721E-01  4.161311443331E-01 -2.413067538019E-01
C43  4.555387053006E-01 -3.016427879841E-01  1.681974726869E-01
C44 -4.555387053006E-01  3.016427879841E-01 -1.681974726869E-01
C45  4.764956782257E-01 -3.975702857491E-01  8.377198814251E-02
C46 -4.764956782257E-01  3.975702857491E-01 -8.377198814251E-02
C47  4.224788624277E-01 -2.818801144256E-01  1.003052907432E-02
C48 -4.224788624277E-01  2.818801144256E-01 -1.003052907432E-02
C49 -4.440985283180E-01  3.777239678829E-01  7.341310396753E-02
C50  4.440985283180E-01 -3.777239678829E-01 -7.341310396753E-02
C51 -3.893481593756E-01  2.623743451909E-01  1.482312043347E-01
C52  3.893481593756E-01 -2.623743451909E-01 -1.482312043347E-01
C53 -4.093197001779E-01  3.595693706660E-01  2.310417758233E-01
C54  4.093197001779E-01 -3.595693706660E-01 -2.310417758233E-01
C55 -3.506802907547E-01  2.454719714952E-01  3.079276333802E-01
C56  3.506802907547E-01 -2.454719714952E-01 -3.079276333802E-01
C57 -3.698557393000E-01  3.456495219613E-01  3.889302403078E-01
C58  3.698557393000E-01 -3.456495219613E-01 -3.889302403078E-01
H59 -4.629302101605E-01 -3.554070595936E-01  4.650324699374E-01
H60  4.629302101605E-01  3.554070595936E-01 -4.650324699374E-01
H61  4.332599384391E-01 -1.476471621311E-01  3.357657081620E-01
H62 -4.332599384391E-01  1.476471621311E-01 -3.357657081620E-01
H63  3.945526677755E-01 -1.314111933675E-01  1.760433811275E-01
H64 -3.945526677755E-01  1.314111933675E-01 -1.760433811275E-01
H65  3.616033728490E-01 -1.116015540537E-01  1.791389436849E-02
H66 -3.616033728490E-01  1.116015540537E-01 -1.791389436849E-02
H67 -3.280197650954E-01  9.233662291181E-02  1.404883383095E-01
H68  3.280197650954E-01 -9.233662291181E-02 -1.404883383095E-01
H69 -2.883214609021E-01  7.620996514890E-02  3.004709609041E-01
H70  2.883214609021E-01 -7.620996514890E-02 -3.004709609041E-01
H71 -3.234174830030E-01  2.572586645127E-01  4.477459878484E-01
H72  3.234174830030E-01 -2.572586645127E-01 -4.477459878484E-01


#===END

data_OPT_STEP_24

_symmetry_space_group_name_H-M 'P 1'
_cell_length_a      7.87184143
_cell_length_b      6.08795359
_cell_length_c     16.05656151
_cell_angle_alpha  101.888095
_cell_angle_beta  112.329530
_cell_angle_gamma   85.814154

loop_
_atom_site_label
_atom_site_fract_x
_atom_site_fract_y
_atom_site_fract_z
C1  1.270034329358E-01  4.020242964979E-02  4.084621100781E-01
C2 -1.270034329358E-01 -4.020242964979E-02 -4.084621100781E-01
C3 -2.265916508785E-02 -2.683590260935E-01  2.808656904318E-01
C4  2.265916508785E-02  2.683590260935E-01 -2.808656904318E-01
C5  3.754654767769E-02 -1.771220851314E-01  3.732240820402E-01
C6 -3.754654767769E-02  1.771220851314E-01 -3.732240820402E-01
C7  1.521114255742E-01  1.606141689556E-01  3.501263306294E-01
C8 -1.521114255742E-01 -1.606141689556E-01 -3.501263306294E-01
C9  9.325028994209E-02  7.046597624055E-02  2.525910557986E-01
C10 -9.325028994209E-02 -7.046597624055E-02 -2.525910557986E-01
C11  1.202712925264E-01  1.877082590804E-01  1.920862406236E-01
C12 -1.202712925264E-01 -1.877082590804E-01 -1.920862406236E-01
C13  6.141821086940E-02  9.709816060305E-02  9.609590795173E-02
C14 -6.141821086940E-02 -9.709816060305E-02 -9.609590795173E-02
C15  8.856088081707E-02  2.138666794747E-01  3.448133489440E-02
C16 -8.856088081707E-02 -2.138666794747E-01 -3.448133489440E-02
C17 -2.916292793395E-02 -1.233222766488E-01  6.056228936460E-02
C18  2.916292793395E-02  1.233222766488E-01 -6.056228936460E-02
C19 -5.566756955394E-02 -2.405637624318E-01  1.230637563573E-01
C20  5.566756955394E-02  2.405637624318E-01 -1.230637563573E-01
C21  3.427170876497E-03 -1.499204203812E-01  2.171392860042E-01
C22 -3.427170876497E-03  1.499204203812E-01 -2.171392860042E-01
H23  1.740075699016E-01  1.108274540215E-01  4.832906912394E-01
H24 -1.740075699016E-01 -1.108274540215E-01 -4.832906912394E-01
H25 -9.204986376735E-02 -4.349801692559E-01  2.536733959836E-01
H26  9.204986376735E-02  4.349801692559E-01 -2.536733959836E-01
H27  1.675380423268E-02 -2.705241158199E-01  4.213147256227E-01
H28 -1.675380423268E-02  2.705241158199E-01 -4.213147256227E-01
H29  2.173626456347E-01  3.302473541124E-01  3.764082736875E-01
H30 -2.173626456347E-01 -3.302473541124E-01 -3.764082736875E-01
H31  1.902280898004E-01  3.542785526019E-01  2.191089252008E-01
H32 -1.902280898004E-01 -3.542785526019E-01 -2.191089252008E-01
H33  1.581730637668E-01  3.805447776218E-01  6.145780378188E-02
H34 -1.581730637668E-01 -3.805447776218E-01 -6.145780378188E-02
H35 -1.245155640017E-01 -4.078200831775E-01  9.606161414334E-02
H36  1.245155640017E-01  4.078200831775E-01 -9.606161414334E-02
C37 -4.503285678639E-01 -4.329209497840E-01  3.986219024512E-01
C38  4.503285678639E-01  4.329209497840E-01 -3.986219024512E-01
C39  4.917096213827E-01 -3.180455556399E-01  3.272769026317E-01
C40 -4.917096213827E-01  3.180455556399E-01 -3.272769026317E-01
C41 -4.897541666150E-01 -4.160616422602E-01  2.410532926221E-01
C42  4.897541666150E-01  4.160616422602E-01 -2.410532926221E-01
C43  4.540121492282E-01 -3.019919343776E-01  1.677304510230E-01
C44 -4.540121492282E-01  3.019919343776E-01 -1.677304510230E-01
C45  4.752089449613E-01 -3.981066272059E-01  8.342751117887E-02
C46 -4.752089449613E-01  3.981066272059E-01 -8.342751117887E-02
C47  4.210746559886E-01 -2.826389144047E-01  9.537286513515E-03
C48 -4.210746559886E-01  2.826389144047E-01 -9.537286513515E-03
C49 -4.440610634775E-01  3.779236645997E-01  7.356352012211E-02
C50  4.440610634775E-01 -3.779236645997E-01 -7.356352012211E-02
C51 -3.884545887254E-01  2.631911932243E-01  1.486649700816E-01
C52  3.884545887254E-01 -2.631911932243E-01 -1.486649700816E-01
C53 -4.087020734352E-01  3.604299156076E-01  2.313176640477E-01
C54  4.087020734352E-01 -3.604299156076E-01 -2.313176640477E-01
C55 -3.500773894806E-01  2.465407990873E-01  3.082848551336E-01
C56  3.500773894806E-01 -2.465407990873E-01 -3.082848551336E-01
C57 -3.703242173656E-01  3.463001812333E-01  3.890094981369E-01
C58  3.703242173656E-01 -3.463001812333E-01 -3.890094981369E-01
H59 -4.646588461701E-01 -3.551961807322E-01  4.647611060094E-01
H60  4.646588461701E-01  3.551961807322E-01 -4.647611060094E-01
H61  4.311913957451E-01 -1.477556709981E-01  3.350555182794E-01
H62 -4.311913957451E-01  1.477556709981E-01 -3.350555182794E-01
H63  3.933111693126E-01 -1.315838168735E-01  1.754366608417E-01
H64 -3.933111693126E-01  1.315838168735E-01 -1.754366608417E-01
H65  3.589714747707E-01 -1.130326141187E-01  1.700391655343E-02
H66 -3.589714747707E-01  1.130326141187E-01 -1.700391655343E-02
H67 -3.267224411762E-01  9.330735344882E-02  1.411908772031E-01
H68  3.267224411762E-01 -9.330735344882E-02 -1.411908772031E-01
H69 -2.883000923561E-01  7.683892044414E-02  3.008707996456E-01
H70  2.883000923561E-01 -7.683892044414E-02 -3.008707996456E-01
H71 -3.244542145063E-01  2.575966985602E-01  4.478123918440E-01
H72  3.244542145063E-01 -2.575966985602E-01 -4.478123918440E-01


#===END

data_OPT_STEP_25

_symmetry_space_group_name_H-M 'P 1'
_cell_length_a      7.87870042
_cell_length_b      6.08703931
_cell_length_c     16.05478820
_cell_angle_alpha  101.874035
_cell_angle_beta  112.331107
_cell_angle_gamma   85.825037

loop_
_atom_site_label
_atom_site_fract_x
_atom_site_fract_y
_atom_site_fract_z
C1  1.266403893476E-01  4.074942922761E-02  4.084745155108E-01
C2 -1.266403893476E-01 -4.074942922761E-02 -4.084745155108E-01
C3 -2.275434040936E-02 -2.680961123394E-01  2.809333450978E-01
C4  2.275434040936E-02  2.680961123394E-01 -2.809333450978E-01
C5  3.739057868317E-02 -1.767382354609E-01  3.732909980731E-01
C6 -3.739057868317E-02  1.767382354609E-01 -3.732909980731E-01
C7  1.519298864175E-01  1.609502936497E-01  3.501024736166E-01
C8 -1.519298864175E-01 -1.609502936497E-01 -3.501024736166E-01
C9  9.281109825478E-02  7.087550974881E-02  2.525652552451E-01
C10 -9.281109825478E-02 -7.087550974881E-02 -2.525652552451E-01
C11  1.203243453837E-01  1.877173149394E-01  1.920658927735E-01
C12 -1.203243453837E-01 -1.877173149394E-01 -1.920658927735E-01
C13  6.124115949588E-02  9.722766636879E-02  9.607446633703E-02
C14 -6.124115949588E-02 -9.722766636879E-02 -9.607446633703E-02
C15  8.844613755576E-02  2.139092132632E-01  3.445926057341E-02
C16 -8.844613755576E-02 -2.139092132632E-01 -3.445926057341E-02
C17 -2.918235779925E-02 -1.232460433561E-01  6.058004214030E-02
C18  2.918235779925E-02  1.232460433561E-01 -6.058004214030E-02
C19 -5.566195661027E-02 -2.404708325160E-01  1.231018902306E-01
C20  5.566195661027E-02  2.404708325160E-01 -1.231018902306E-01
C21  3.306699501097E-03 -1.496898228584E-01  2.171736896824E-01
C22 -3.306699501097E-03  1.496898228584E-01 -2.171736896824E-01
H23  1.733776464092E-01  1.116382373924E-01  4.832841986693E-01
H24 -1.733776464092E-01 -1.116382373924E-01 -4.832841986693E-01
H25 -9.219819510793E-02 -4.346753063312E-01  2.537668710714E-01
H26  9.219819510793E-02  4.346753063312E-01 -2.537668710714E-01
H27  1.656607810278E-02 -2.700745735242E-01  4.214025405889E-01
H28 -1.656607810278E-02  2.700745735242E-01 -4.214025405889E-01
H29  2.175639497198E-01  3.302597296712E-01  3.763442408588E-01
H30 -2.175639497198E-01 -3.302597296712E-01 -3.763442408588E-01
H31  1.900640001502E-01  3.544594419006E-01  2.190605162868E-01
H32 -1.900640001502E-01 -3.544594419006E-01 -2.190605162868E-01
H33  1.577603210799E-01  3.808193107858E-01  6.140010374173E-02
H34 -1.577603210799E-01 -3.808193107858E-01 -6.140010374173E-02
H35 -1.245504181888E-01 -4.076949879242E-01  9.611838696412E-02
H36  1.245504181888E-01  4.076949879242E-01 -9.611838696412E-02
C37 -4.501711694041E-01 -4.327079812463E-01  3.987251470344E-01
C38  4.501711694041E-01  4.327079812463E-01 -3.987251470344E-01
C39  4.922792141240E-01 -3.176580734046E-01  3.274164675520E-01
C40 -4.922792141240E-01  3.176580734046E-01 -3.274164675520E-01
C41 -4.891760926959E-01 -4.156811706299E-01  2.411956804900E-01
C42  4.891760926959E-01  4.156811706299E-01 -2.411956804900E-01
C43  4.545977061223E-01 -3.016556064814E-01  1.678399285125E-01
C44 -4.545977061223E-01  3.016556064814E-01 -1.678399285125E-01
C45  4.756638798640E-01 -3.978516908067E-01  8.350845533899E-02
C46 -4.756638798640E-01  3.978516908067E-01 -8.350845533899E-02
C47  4.212492088322E-01 -2.825457801875E-01  9.537878870219E-03
C48 -4.212492088322E-01  2.825457801875E-01 -9.537878870219E-03
C49 -4.438028893904E-01  3.780766273680E-01  7.363884732967E-02
C50  4.438028893904E-01 -3.780766273680E-01 -7.363884732967E-02
C51 -3.882268877679E-01  2.633450848760E-01  1.487716338093E-01
C52  3.882268877679E-01 -2.633450848760E-01 -1.487716338093E-01
C53 -4.088733931747E-01  3.603964253310E-01  2.313638472226E-01
C54  4.088733931747E-01 -3.603964253310E-01 -2.313638472226E-01
C55 -3.502563982806E-01  2.465597877704E-01  3.083832646995E-01
C56  3.502563982806E-01 -2.465597877704E-01 -3.083832646995E-01
C57 -3.704581902004E-01  3.463930563274E-01  3.891168220130E-01
C58  3.704581902004E-01 -3.463930563274E-01 -3.891168220130E-01
H59 -4.646708171828E-01 -3.550822435770E-01  4.647690102370E-01
H60  4.646708171828E-01  3.550822435770E-01 -4.647690102370E-01
H61  4.315926526831E-01 -1.474921072012E-01  3.351367469890E-01
H62 -4.315926526831E-01  1.474921072012E-01 -3.351367469890E-01
H63  3.935042523265E-01 -1.314896060942E-01  1.754431533349E-01
H64 -3.935042523265E-01  1.314896060942E-01 -1.754431533349E-01
H65  3.595987568262E-01 -1.127102831628E-01  1.705954010879E-02
H66 -3.595987568262E-01  1.127102831628E-01 -1.705954010879E-02
H67 -3.264688128027E-01  9.350214469010E-02  1.413268738651E-01
H68  3.264688128027E-01 -9.350214469010E-02 -1.413268738651E-01
H69 -2.880605960218E-01  7.713416741416E-02  3.010824999862E-01
H70  2.880605960218E-01 -7.713416741416E-02 -3.010824999862E-01
H71 -3.246224205730E-01  2.577217374928E-01  4.479485901526E-01
H72  3.246224205730E-01 -2.577217374928E-01 -4.479485901526E-01


#===END

data_OPT_STEP_26

_symmetry_space_group_name_H-M 'P 1'
_cell_length_a      7.89295301
_cell_length_b      6.07974997
_cell_length_c     16.05153667
_cell_angle_alpha  101.879879
_cell_angle_beta  112.351011
_cell_angle_gamma   85.839597

loop_
_atom_site_label
_atom_site_fract_x
_atom_site_fract_y
_atom_site_fract_z
C1  1.259793435959E-01  4.079863617246E-02  4.084060696877E-01
C2 -1.259793435959E-01 -4.079863617246E-02 -4.084060696877E-01
C3 -2.238520945973E-02 -2.689612313927E-01  2.808868542865E-01
C4  2.238520945973E-02  2.689612313927E-01 -2.808868542865E-01
C5  3.773359562010E-02 -1.775250769642E-01  3.732740036356E-01
C6 -3.773359562010E-02  1.775250769642E-01 -3.732740036356E-01
C7  1.519130739857E-01  1.606319026598E-01  3.500482148692E-01
C8 -1.519130739857E-01 -1.606319026598E-01 -3.500482148692E-01
C9  9.301141890225E-02  7.039485953411E-02  2.525490410590E-01
C10 -9.301141890225E-02 -7.039485953411E-02 -2.525490410590E-01
C11  1.203070382992E-01  1.876269695331E-01  1.920791790515E-01
C12 -1.203070382992E-01 -1.876269695331E-01 -1.920791790515E-01
C13  6.134246271897E-02  9.716591629469E-02  9.608794403676E-02
C14 -6.134246271897E-02 -9.716591629469E-02 -9.608794403676E-02
C15  8.849826934601E-02  2.140299496047E-01  3.456054580243E-02
C16 -8.849826934601E-02 -2.140299496047E-01 -3.456054580243E-02
C17 -2.944922193469E-02 -1.232863447644E-01  6.052361353667E-02
C18  2.944922193469E-02  1.232863447644E-01 -6.052361353667E-02
C19 -5.601022819914E-02 -2.405812381218E-01  1.229870270692E-01
C20  5.601022819914E-02  2.405812381218E-01 -1.229870270692E-01
C21  3.132330611906E-03 -1.500479394884E-01  2.170919710885E-01
C22 -3.132330611906E-03  1.500479394884E-01 -2.170919710885E-01
H23  1.733563982421E-01  1.113126613316E-01  4.832605174481E-01
H24 -1.733563982421E-01 -1.113126613316E-01 -4.832605174481E-01
H25 -9.132196620451E-02 -4.360160860183E-01  2.537331168101E-01
H26  9.132196620451E-02  4.360160860183E-01 -2.537331168101E-01
H27  1.754118368199E-02 -2.713329222916E-01  4.214330809262E-01
H28 -1.754118368199E-02  2.713329222916E-01 -4.214330809262E-01
H29  2.179688445578E-01  3.295733552867E-01  3.762426533320E-01
H30 -2.179688445578E-01 -3.295733552867E-01 -3.762426533320E-01
H31  1.891705974964E-01  3.551562464103E-01  2.191093872449E-01
H32 -1.891705974964E-01 -3.551562464103E-01 -2.191093872449E-01
H33  1.574639297585E-01  3.814376927604E-01  6.153556379621E-02
H34 -1.574639297585E-01 -3.814376927604E-01 -6.153556379621E-02
H35 -1.242970254141E-01 -4.083384390942E-01  9.600647411164E-02
H36  1.242970254141E-01  4.083384390942E-01 -9.600647411164E-02
C37 -4.505246226007E-01 -4.324330697015E-01  3.988355169051E-01
C38  4.505246226007E-01  4.324330697015E-01 -3.988355169051E-01
C39  4.922143981402E-01 -3.173642037242E-01  3.275051100573E-01
C40 -4.922143981402E-01  3.173642037242E-01 -3.275051100573E-01
C41 -4.895331083758E-01 -4.155657631507E-01  2.412209366766E-01
C42  4.895331083758E-01  4.155657631507E-01 -2.412209366766E-01
C43  4.548198174688E-01 -3.012563461505E-01  1.679073015395E-01
C44 -4.548198174688E-01  3.012563461505E-01 -1.679073015395E-01
C45  4.761105601098E-01 -3.973951252648E-01  8.361043047079E-02
C46 -4.761105601098E-01  3.973951252648E-01 -8.361043047079E-02
C47  4.217315956345E-01 -2.821065407377E-01  9.580751695823E-03
C48 -4.217315956345E-01  2.821065407377E-01 -9.580751695823E-03
C49 -4.438366681280E-01  3.780983417342E-01  7.368756935012E-02
C50  4.438366681280E-01 -3.780983417342E-01 -7.368756935012E-02
C51 -3.889208000027E-01  2.631036052654E-01  1.487754848686E-01
C52  3.889208000027E-01 -2.631036052654E-01 -1.487754848686E-01
C53 -4.091650170716E-01  3.605495591378E-01  2.314546642584E-01
C54  4.091650170716E-01 -3.605495591378E-01 -2.314546642584E-01
C55 -3.505715331325E-01  2.466961454214E-01  3.085694224761E-01
C56  3.505715331325E-01 -2.466961454214E-01 -3.085694224761E-01
C57 -3.707873543518E-01  3.467113818023E-01  3.893259922618E-01
C58  3.707873543518E-01 -3.467113818023E-01 -3.893259922618E-01
H59 -4.649096093257E-01 -3.546256466422E-01  4.647514615162E-01
H60  4.649096093257E-01  3.546256466422E-01 -4.647514615162E-01
H61  4.313070965806E-01 -1.472298672892E-01  3.351518787263E-01
H62 -4.313070965806E-01  1.472298672892E-01 -3.351518787263E-01
H63  3.936926549162E-01 -1.310366646546E-01  1.754830017888E-01
H64 -3.936926549162E-01  1.310366646546E-01 -1.754830017888E-01
H65  3.602710620491E-01 -1.120406296155E-01  1.710455358799E-02
H66 -3.602710620491E-01  1.120406296155E-01 -1.710455358799E-02
H67 -3.279397758030E-01  9.275283797219E-02  1.412125334714E-01
H68  3.279397758030E-01 -9.275283797219E-02 -1.412125334714E-01
H69 -2.876908384079E-01  7.764747488571E-02  3.014522819445E-01
H70  2.876908384079E-01 -7.764747488571E-02 -3.014522819445E-01
H71 -3.247204790909E-01  2.583321199144E-01  4.482765673248E-01
H72  3.247204790909E-01 -2.583321199144E-01 -4.482765673248E-01


#===END

data_OPT_STEP_27

_symmetry_space_group_name_H-M 'P 1'
_cell_length_a      7.89269596
_cell_length_b      6.07828508
_cell_length_c     16.05080860
_cell_angle_alpha  101.871518
_cell_angle_beta  112.365117
_cell_angle_gamma   85.840974

loop_
_atom_site_label
_atom_site_fract_x
_atom_site_fract_y
_atom_site_fract_z
C1  1.257059583836E-01  4.093372966440E-02  4.084271672861E-01
C2 -1.257059583836E-01 -4.093372966440E-02 -4.084271672861E-01
C3 -2.256833765643E-02 -2.689385180868E-01  2.808923216267E-01
C4  2.256833765643E-02  2.689385180868E-01 -2.808923216267E-01
C5  3.751739188112E-02 -1.775050422684E-01  3.732847184194E-01
C6 -3.751739188112E-02  1.775050422684E-01 -3.732847184194E-01
C7  1.516531296437E-01  1.608245024709E-01  3.500726097464E-01
C8 -1.516531296437E-01 -1.608245024709E-01 -3.500726097464E-01
C9  9.283223550144E-02  7.053359786030E-02  2.525656742729E-01
C10 -9.283223550144E-02 -7.053359786030E-02 -2.525656742729E-01
C11  1.202547502199E-01  1.877015476037E-01  1.920967243331E-01
C12 -1.202547502199E-01 -1.877015476037E-01 -1.920967243331E-01
C13  6.129895065078E-02  9.720667649608E-02  9.609571045735E-02
C14 -6.129895065078E-02 -9.720667649608E-02 -9.609571045735E-02
C15  8.852721603981E-02  2.140486203081E-01  3.456318140599E-02
C16 -8.852721603981E-02 -2.140486203081E-01 -3.456318140599E-02
C17 -2.947534367283E-02 -1.232865773210E-01  6.052825546177E-02
C18  2.947534367283E-02  1.232865773210E-01 -6.052825546177E-02
C19 -5.610139696196E-02 -2.405741720922E-01  1.229920838282E-01
C20  5.610139696196E-02  2.405741720922E-01 -1.229920838282E-01
C21  2.982069008532E-03 -1.499739404586E-01  2.171029009232E-01
C22 -2.982069008532E-03  1.499739404586E-01 -2.171029009232E-01
H23  1.728707436461E-01  1.115886631556E-01  4.832775708303E-01
H24 -1.728707436461E-01 -1.115886631556E-01 -4.832775708303E-01
H25 -9.141574443396E-02 -4.360874794575E-01  2.537330916905E-01
H26  9.141574443396E-02  4.360874794575E-01 -2.537330916905E-01
H27  1.726100895336E-02 -2.714297860834E-01  4.214118414964E-01
H28 -1.726100895336E-02  2.714297860834E-01 -4.214118414964E-01
H29  2.176936538388E-01  3.298400596740E-01  3.762751871231E-01
H30 -2.176936538388E-01 -3.298400596740E-01 -3.762751871231E-01
H31  1.895146102886E-01  3.549825507849E-01  2.191432574808E-01
H32 -1.895146102886E-01 -3.549825507849E-01 -2.191432574808E-01
H33  1.575572384649E-01  3.814379449637E-01  6.153946856689E-02
H34 -1.575572384649E-01 -3.814379449637E-01 -6.153946856689E-02
H35 -1.245077077183E-01 -4.082941764430E-01  9.599983730072E-02
H36  1.245077077183E-01  4.082941764430E-01 -9.599983730072E-02
C37 -4.507426887293E-01 -4.324840501926E-01  3.988093706580E-01
C38  4.507426887293E-01  4.324840501926E-01 -3.988093706580E-01
C39  4.921011683143E-01 -3.173264910842E-01  3.274794622388E-01
C40 -4.921011683143E-01  3.173264910842E-01 -3.274794622388E-01
C41 -4.895566551494E-01 -4.155340786294E-01  2.412200772173E-01
C42  4.895566551494E-01  4.155340786294E-01 -2.412200772173E-01
C43  4.548518066550E-01 -3.011694337582E-01  1.678998959394E-01
C44 -4.548518066550E-01  3.011694337582E-01 -1.678998959394E-01
C45  4.760234625968E-01 -3.974307211932E-01  8.358669308383E-02
C46 -4.760234625968E-01  3.974307211932E-01 -8.358669308383E-02
C47  4.218360840231E-01 -2.819997229831E-01  9.575788678805E-03
C48 -4.218360840231E-01  2.819997229831E-01 -9.575788678805E-03
C49 -4.439691549115E-01  3.779923679139E-01  7.368102991099E-02
C50  4.439691549115E-01 -3.779923679139E-01 -7.368102991099E-02
C51 -3.889028164148E-01  2.630518980752E-01  1.488170460772E-01
C52  3.889028164148E-01 -2.630518980752E-01 -1.488170460772E-01
C53 -4.093007015034E-01  3.604468563639E-01  2.314631885584E-01
C54  4.093007015034E-01 -3.604468563639E-01 -2.314631885584E-01
C55 -3.507053944663E-01  2.466020522785E-01  3.086022868501E-01
C56  3.507053944663E-01 -2.466020522785E-01 -3.086022868501E-01
C57 -3.709076489489E-01  3.466621440878E-01  3.893487144153E-01
C58  3.709076489489E-01 -3.466621440878E-01 -3.893487144153E-01
H59 -4.649912404061E-01 -3.546095685223E-01  4.647428258409E-01
H60  4.649912404061E-01  3.546095685223E-01 -4.647428258409E-01
H61  4.312952901118E-01 -1.471059292953E-01  3.351225593011E-01
H62 -4.312952901118E-01  1.471059292953E-01 -3.351225593011E-01
H63  3.937497929739E-01 -1.308989262243E-01  1.754554508860E-01
H64 -3.937497929739E-01  1.308989262243E-01 -1.754554508860E-01
H65  3.604599363054E-01 -1.118522929100E-01  1.709797759512E-02
H66 -3.604599363054E-01  1.118522929100E-01 -1.709797759512E-02
H67 -3.274986273970E-01  9.289980002698E-02  1.413507575615E-01
H68  3.274986273970E-01 -9.289980002698E-02 -1.413507575615E-01
H69 -2.878434797306E-01  7.750221171112E-02  3.015043089905E-01
H70  2.878434797306E-01 -7.750221171112E-02 -3.015043089905E-01
H71 -3.247840733603E-01  2.583243970707E-01  4.483336477213E-01
H72  3.247840733603E-01 -2.583243970707E-01 -4.483336477213E-01


#===END

data_OPT_STEP_28

_symmetry_space_group_name_H-M 'P 1'
_cell_length_a      7.89821948
_cell_length_b      6.07492915
_cell_length_c     16.04907373
_cell_angle_alpha  101.850037
_cell_angle_beta  112.363774
_cell_angle_gamma   85.850648

loop_
_atom_site_label
_atom_site_fract_x
_atom_site_fract_y
_atom_site_fract_z
C1  1.264532868637E-01  4.046768091003E-02  4.085551914931E-01
C2 -1.264532868637E-01 -4.046768091003E-02 -4.085551914931E-01
C3 -2.289847384584E-02 -2.686611829727E-01  2.809966580738E-01
C4  2.289847384584E-02  2.686611829727E-01 -2.809966580738E-01
C5  3.748842238946E-02 -1.774696245873E-01  3.734021403066E-01
C6 -3.748842238946E-02  1.774696245873E-01 -3.734021403066E-01
C7  1.517471220528E-01  1.608789726524E-01  3.501575501880E-01
C8 -1.517471220528E-01 -1.608789726524E-01 -3.501575501880E-01
C9  9.255616192060E-02  7.083398739647E-02  2.526159869970E-01
C10 -9.255616192060E-02 -7.083398739647E-02 -2.526159869970E-01
C11  1.199480282745E-01  1.880094088404E-01  1.921023752976E-01
C12 -1.199480282745E-01 -1.880094088404E-01 -1.921023752976E-01
C13  6.103787234898E-02  9.740893660437E-02  9.609803464130E-02
C14 -6.103787234898E-02 -9.740893660437E-02 -9.609803464130E-02
C15  8.826371981952E-02  2.142815008989E-01  3.450012089396E-02
C16 -8.826371981952E-02 -2.142815008989E-01 -3.450012089396E-02
C17 -2.941546359472E-02 -1.233320054815E-01  6.057650332412E-02
C18  2.941546359472E-02  1.233320054815E-01 -6.057650332412E-02
C19 -5.601429827934E-02 -2.406713988870E-01  1.230870567772E-01
C20  5.601429827934E-02  2.406713988870E-01 -1.230870567772E-01
C21  3.003958697021E-03 -1.499425547340E-01  2.171964032126E-01
C22 -3.003958697021E-03  1.499425547340E-01 -2.171964032126E-01
H23  1.733255394334E-01  1.113214371554E-01  4.833929444570E-01
H24 -1.733255394334E-01 -1.113214371554E-01 -4.833929444570E-01
H25 -9.231683318319E-02 -4.354834408767E-01  2.538092705306E-01
H26  9.231683318319E-02  4.354834408767E-01 -2.538092705306E-01
H27  1.686774041204E-02 -2.713415316887E-01  4.214904461043E-01
H28 -1.686774041204E-02  2.713415316887E-01 -4.214904461043E-01
H29  2.174133715321E-01  3.302789124614E-01  3.763554302372E-01
H30 -2.174133715321E-01 -3.302789124614E-01 -3.763554302372E-01
H31  1.896005392893E-01  3.550280963716E-01  2.191239451945E-01
H32 -1.896005392893E-01 -3.550280963716E-01 -2.191239451945E-01
H33  1.574732729878E-01  3.815410607855E-01  6.145651002317E-02
H34 -1.574732729878E-01 -3.815410607855E-01 -6.145651002317E-02
H35 -1.249062996117E-01 -4.081274279615E-01  9.607767314910E-02
H36  1.249062996117E-01  4.081274279615E-01 -9.607767314910E-02
C37 -4.506099844218E-01 -4.322250314467E-01  3.988400749678E-01
C38  4.506099844218E-01  4.322250314467E-01 -3.988400749678E-01
C39  4.921413285486E-01 -3.170671805754E-01  3.274576793220E-01
C40 -4.921413285486E-01  3.170671805754E-01 -3.274576793220E-01
C41 -4.892961122125E-01 -4.152926604848E-01  2.412609069247E-01
C42  4.892961122125E-01  4.152926604848E-01 -2.412609069247E-01
C43  4.546935784224E-01 -3.011730114295E-01  1.678296599896E-01
C44 -4.546935784224E-01  3.011730114295E-01 -1.678296599896E-01
C45  4.760387822917E-01 -3.974018438778E-01  8.356903361438E-02
C46 -4.760387822917E-01  3.974018438778E-01 -8.356903361438E-02
C47  4.215253269873E-01 -2.821329916772E-01  9.465502710038E-03
C48 -4.215253269873E-01  2.821329916772E-01 -9.465502710038E-03
C49 -4.437343374243E-01  3.780949186456E-01  7.376165097122E-02
C50  4.437343374243E-01 -3.780949186456E-01 -7.376165097122E-02
C51 -3.887835186988E-01  2.630458926005E-01  1.489123429227E-01
C52  3.887835186988E-01 -2.630458926005E-01 -1.489123429227E-01
C53 -4.093847565854E-01  3.603500273349E-01  2.315010371974E-01
C54  4.093847565854E-01 -3.603500273349E-01 -2.315010371974E-01
C55 -3.507298162976E-01  2.465386086110E-01  3.086842629499E-01
C56  3.507298162976E-01 -2.465386086110E-01 -3.086842629499E-01
C57 -3.709777641664E-01  3.466289850402E-01  3.893897244135E-01
C58  3.709777641664E-01 -3.466289850402E-01 -3.893897244135E-01
H59 -4.649746734328E-01 -3.543022240440E-01  4.648261777825E-01
H60  4.649746734328E-01  3.543022240440E-01 -4.648261777825E-01
H61  4.313966353652E-01 -1.467445973951E-01  3.350642659681E-01
H62 -4.313966353652E-01  1.467445973951E-01 -3.350642659681E-01
H63  3.932933639699E-01 -1.309842780825E-01  1.752763657793E-01
H64 -3.932933639699E-01  1.309842780825E-01 -1.752763657793E-01
H65  3.599356914006E-01 -1.120638745948E-01  1.691065523969E-02
H66 -3.599356914006E-01  1.120638745948E-01 -1.691065523969E-02
H67 -3.273854533106E-01  9.281683431153E-02  1.414872620134E-01
H68  3.273854533106E-01 -9.281683431153E-02 -1.414872620134E-01
H69 -2.881110153199E-01  7.721259532997E-02  3.015715910870E-01
H70  2.881110153199E-01 -7.721259532997E-02 -3.015715910870E-01
H71 -3.249042365967E-01  2.582615515569E-01  4.484092086280E-01
H72  3.249042365967E-01 -2.582615515569E-01 -4.484092086280E-01


#===END

data_OPT_STEP_29

_symmetry_space_group_name_H-M 'P 1'
_cell_length_a      7.90473117
_cell_length_b      6.07338862
_cell_length_c     16.04934697
_cell_angle_alpha  101.814298
_cell_angle_beta  112.393982
_cell_angle_gamma   85.859290

loop_
_atom_site_label
_atom_site_fract_x
_atom_site_fract_y
_atom_site_fract_z
C1  1.259496501260E-01  4.114812284286E-02  4.086023737697E-01
C2 -1.259496501260E-01 -4.114812284286E-02 -4.086023737697E-01
C3 -2.324004321048E-02 -2.681667418714E-01  2.810849324158E-01
C4  2.324004321048E-02  2.681667418714E-01 -2.810849324158E-01
C5  3.700887579742E-02 -1.768302226152E-01  3.734797459385E-01
C6 -3.700887579742E-02  1.768302226152E-01 -3.734797459385E-01
C7  1.514882778382E-01  1.613515213207E-01  3.501815024677E-01
C8 -1.514882778382E-01 -1.613515213207E-01 -3.501815024677E-01
C9  9.242573475206E-02  7.115274919076E-02  2.526389831418E-01
C10 -9.242573475206E-02 -7.115274919076E-02 -2.526389831418E-01
C11  1.199449152850E-01  1.881687629300E-01  1.920950542685E-01
C12 -1.199449152850E-01 -1.881687629300E-01 -1.920950542685E-01
C13  6.101542193127E-02  9.749759985942E-02  9.608895021500E-02
C14 -6.101542193127E-02 -9.749759985942E-02 -9.608895021500E-02
C15  8.827877377261E-02  2.142798691417E-01  3.444815518992E-02
C16 -8.827877377261E-02 -2.142798691417E-01 -3.444815518992E-02
C17 -2.942362005518E-02 -1.232558891525E-01  6.061820416152E-02
C18  2.942362005518E-02  1.232558891525E-01 -6.061820416152E-02
C19 -5.607181451843E-02 -2.405058162570E-01  1.231641865665E-01
C20  5.607181451843E-02  2.405058162570E-01 -1.231641865665E-01
C21  2.822520806006E-03 -1.496066185051E-01  2.172633938040E-01
C22 -2.822520806006E-03  1.496066185051E-01 -2.172633938040E-01
H23  1.727040751582E-01  1.121297721812E-01  4.834307204900E-01
H24 -1.727040751582E-01 -1.121297721812E-01 -4.834307204900E-01
H25 -9.260666471001E-02 -4.350234879003E-01  2.539349811729E-01
H26  9.260666471001E-02  4.350234879003E-01 -2.539349811729E-01
H27  1.633241640723E-02 -2.706623685102E-01  4.215823535190E-01
H28 -1.633241640723E-02  2.706623685102E-01 -4.215823535190E-01
H29  2.172210996801E-01  3.307392758131E-01  3.763719309592E-01
H30 -2.172210996801E-01 -3.307392758131E-01 -3.763719309592E-01
H31  1.894817103734E-01  3.552771490752E-01  2.190739361778E-01
H32 -1.894817103734E-01 -3.552771490752E-01 -2.190739361778E-01
H33  1.574474345698E-01  3.815624899842E-01  6.136468729933E-02
H34 -1.574474345698E-01 -3.815624899842E-01 -6.136468729933E-02
H35 -1.248577276614E-01 -4.080288433240E-01  9.620102744851E-02
H36  1.248577276614E-01  4.080288433240E-01 -9.620102744851E-02
C37 -4.506621385321E-01 -4.322398207043E-01  3.988271399512E-01
C38  4.506621385321E-01  4.322398207043E-01 -3.988271399512E-01
C39  4.920076936257E-01 -3.171139454082E-01  3.273848338442E-01
C40 -4.920076936257E-01  3.171139454082E-01 -3.273848338442E-01
C41 -4.894782033488E-01 -4.153838001346E-01  2.412080190792E-01
C42  4.894782033488E-01  4.153838001346E-01 -2.412080190792E-01
C43  4.545521587251E-01 -3.012344652208E-01  1.677355085482E-01
C44 -4.545521587251E-01  3.012344652208E-01 -1.677355085482E-01
C45  4.758651688437E-01 -3.974999094835E-01  8.350113900366E-02
C46 -4.758651688437E-01  3.974999094835E-01 -8.350113900366E-02
C47  4.214818406026E-01 -2.821551682486E-01  9.374364172947E-03
C48 -4.214818406026E-01  2.821551682486E-01 -9.374364172947E-03
C49 -4.438323760961E-01  3.780374062804E-01  7.379535495869E-02
C50  4.438323760961E-01 -3.780374062804E-01 -7.379535495869E-02
C51 -3.887843042040E-01  2.630356222691E-01  1.490071483051E-01
C52  3.887843042040E-01 -2.630356222691E-01 -1.490071483051E-01
C53 -4.094724215144E-01  3.602983861893E-01  2.315504458674E-01
C54  4.094724215144E-01 -3.602983861893E-01 -2.315504458674E-01
C55 -3.508681170723E-01  2.464724938138E-01  3.087661071945E-01
C56  3.508681170723E-01 -2.464724938138E-01 -3.087661071945E-01
C57 -3.710025333442E-01  3.466140791844E-01  3.894575878307E-01
C58  3.710025333442E-01 -3.466140791844E-01 -3.894575878307E-01
H59 -4.649848972926E-01 -3.543000382423E-01  4.648124988277E-01
H60  4.649848972926E-01  3.543000382423E-01 -4.648124988277E-01
H61  4.312641565236E-01 -1.467875033300E-01  3.349261166610E-01
H62 -4.312641565236E-01  1.467875033300E-01 -3.349261166610E-01
H63  3.932196945235E-01 -1.310081616752E-01  1.751279268766E-01
H64 -3.932196945235E-01  1.310081616752E-01 -1.751279268766E-01
H65  3.599390102854E-01 -1.120611189024E-01  1.676123432429E-02
H66 -3.599390102854E-01  1.120611189024E-01 -1.676123432429E-02
H67 -3.272254382839E-01  9.289404967015E-02  1.416791631038E-01
H68  3.272254382839E-01 -9.289404967015E-02 -1.416791631038E-01
H69 -2.883191364079E-01  7.709818502288E-02  3.017016883135E-01
H70  2.883191364079E-01 -7.709818502288E-02 -3.017016883135E-01
H71 -3.249317849947E-01  2.582176553156E-01  4.485061623640E-01
H72  3.249317849947E-01 -2.582176553156E-01 -4.485061623640E-01


#===END

data_OPT_STEP_30

_symmetry_space_group_name_H-M 'P 1'
_cell_length_a      7.90234418
_cell_length_b      6.06361903
_cell_length_c     16.04400480
_cell_angle_alpha  101.782905
_cell_angle_beta  112.356417
_cell_angle_gamma   85.876290

loop_
_atom_site_label
_atom_site_fract_x
_atom_site_fract_y
_atom_site_fract_z
C1  1.255906413781E-01  4.066704650057E-02  4.085997442708E-01
C2 -1.255906413781E-01 -4.066704650057E-02 -4.085997442708E-01
C3 -2.281681153615E-02 -2.695527444563E-01  2.811175958462E-01
C4  2.281681153615E-02  2.695527444563E-01 -2.811175958462E-01
C5  3.675446252097E-02 -1.777341124924E-01  3.734816794540E-01
C6 -3.675446252097E-02  1.777341124924E-01 -3.734816794540E-01
C7  1.516508986517E-01  1.608332736509E-01  3.501940147629E-01
C8 -1.516508986517E-01 -1.608332736509E-01 -3.501940147629E-01
C9  9.290313571389E-02  7.043808119628E-02  2.526672131332E-01
C10 -9.290313571389E-02 -7.043808119628E-02 -2.526672131332E-01
C11  1.208897602173E-01  1.874610136069E-01  1.921467068205E-01
C12 -1.208897602173E-01 -1.874610136069E-01 -1.921467068205E-01
C13  6.144477943561E-02  9.720968221699E-02  9.613276576202E-02
C14 -6.144477943561E-02 -9.720968221699E-02 -9.613276576202E-02
C15  8.887615295744E-02  2.141866415583E-01  3.448463899953E-02
C16 -8.887615295744E-02 -2.141866415583E-01 -3.448463899953E-02
C17 -2.946252565851E-02 -1.235854365713E-01  6.060665470118E-02
C18  2.946252565851E-02  1.235854365713E-01 -6.060665470118E-02
C19 -5.619461575108E-02 -2.411141066427E-01  1.231604474678E-01
C20  5.619461575108E-02  2.411141066427E-01 -1.231604474678E-01
C21  3.033695255279E-03 -1.504702691670E-01  2.172716845837E-01
C22 -3.033695255279E-03  1.504702691670E-01 -2.172716845837E-01
H23  1.720515620898E-01  1.118432921297E-01  4.834126552890E-01
H24 -1.720515620898E-01 -1.118432921297E-01 -4.834126552890E-01
H25 -9.181839711375E-02 -4.368901514766E-01  2.539960580516E-01
H26  9.181839711375E-02  4.368901514766E-01 -2.539960580516E-01
H27  1.573311821207E-02 -2.716724196840E-01  4.215493510091E-01
H28 -1.573311821207E-02  2.716724196840E-01 -4.215493510091E-01
H29  2.176575774825E-01  3.302694770667E-01  3.763737084913E-01
H30 -2.176575774825E-01 -3.302694770667E-01 -3.763737084913E-01
H31  1.907263092060E-01  3.546093855863E-01  2.191359311825E-01
H32 -1.907263092060E-01 -3.546093855863E-01 -2.191359311825E-01
H33  1.582876371016E-01  3.815504368543E-01  6.140793199997E-02
H34 -1.582876371016E-01 -3.815504368543E-01 -6.140793199997E-02
H35 -1.252595569038E-01 -4.087111750116E-01  9.617388388452E-02
H36  1.252595569038E-01  4.087111750116E-01 -9.617388388452E-02
C37 -4.508025344220E-01 -4.312279825540E-01  3.989584768382E-01
C38  4.508025344220E-01  4.312279825540E-01 -3.989584768382E-01
C39  4.918662729982E-01 -3.160607512048E-01  3.274447728118E-01
C40 -4.918662729982E-01  3.160607512048E-01 -3.274447728118E-01
C41 -4.895759004414E-01 -4.146736843649E-01  2.412699400050E-01
C42  4.895759004414E-01  4.146736843649E-01 -2.412699400050E-01
C43  4.545324370706E-01 -3.004728338389E-01  1.677311540447E-01
C44 -4.545324370706E-01  3.004728338389E-01 -1.677311540447E-01
C45  4.756821243204E-01 -3.972249626260E-01  8.345913349441E-02
C46 -4.756821243204E-01  3.972249626260E-01 -8.345913349441E-02
C47  4.212887435163E-01 -2.818926641242E-01  9.245925349216E-03
C48 -4.212887435163E-01  2.818926641242E-01 -9.245925349216E-03
C49 -4.438370708512E-01  3.780389536777E-01  7.387800422209E-02
C50  4.438370708512E-01 -3.780389536777E-01 -7.387800422209E-02
C51 -3.883382614461E-01  2.632739667919E-01  1.492652462499E-01
C52  3.883382614461E-01 -2.632739667919E-01 -1.492652462499E-01
C53 -4.093237209889E-01  3.607597613439E-01  2.317415407307E-01
C54  4.093237209889E-01 -3.607597613439E-01 -2.317415407307E-01
C55 -3.506446192133E-01  2.469806920137E-01  3.090561686470E-01
C56  3.506446192133E-01 -2.469806920137E-01 -3.090561686470E-01
C57 -3.709476399271E-01  3.473779401511E-01  3.897034719588E-01
C58  3.709476399271E-01 -3.473779401511E-01 -3.897034719588E-01
H59 -4.655592730118E-01 -3.533822156729E-01  4.648543270565E-01
H60  4.655592730118E-01  3.533822156729E-01 -4.648543270565E-01
H61  4.310770226470E-01 -1.454892857643E-01  3.349115967326E-01
H62 -4.310770226470E-01  1.454892857643E-01 -3.349115967326E-01
H63  3.933684399304E-01 -1.298818563896E-01  1.750737442453E-01
H64 -3.933684399304E-01  1.298818563896E-01 -1.750737442453E-01
H65  3.599274907048E-01 -1.114137629203E-01  1.658622198293E-02
H66 -3.599274907048E-01  1.114137629203E-01 -1.658622198293E-02
H67 -3.264403812714E-01  9.304738176845E-02  1.420673848646E-01
H68  3.264403812714E-01 -9.304738176845E-02 -1.420673848646E-01
H69 -2.879933798469E-01  7.739353038322E-02  3.020688696250E-01
H70  2.879933798469E-01 -7.739353038322E-02 -3.020688696250E-01
H71 -3.249284479892E-01  2.589731858494E-01  4.488076980794E-01
H72  3.249284479892E-01 -2.589731858494E-01 -4.488076980794E-01


#===END

data_OPT_STEP_31

_symmetry_space_group_name_H-M 'P 1'
_cell_length_a      7.90378102
_cell_length_b      6.07119333
_cell_length_c     16.04770938
_cell_angle_alpha  101.806579
_cell_angle_beta  112.391157
_cell_angle_gamma   85.861545

loop_
_atom_site_label
_atom_site_fract_x
_atom_site_fract_y
_atom_site_fract_z
C1  1.258166548288E-01  4.107100939406E-02  4.086120430969E-01
C2 -1.258166548288E-01 -4.107100939406E-02 -4.086120430969E-01
C3 -2.314800235695E-02 -2.684963696000E-01  2.810949275845E-01
C4  2.314800235695E-02  2.684963696000E-01 -2.810949275845E-01
C5  3.691410177430E-02 -1.770223495038E-01  3.734866405082E-01
C6 -3.691410177430E-02  1.770223495038E-01 -3.734866405082E-01
C7  1.515011370277E-01  1.612451224909E-01  3.501943246348E-01
C8 -1.515011370277E-01 -1.612451224909E-01 -3.501943246348E-01
C9  9.252928921953E-02  7.098585947002E-02  2.526522828746E-01
C10 -9.252928921953E-02 -7.098585947002E-02 -2.526522828746E-01
C11  1.201852882435E-01  1.879860515460E-01  1.921153928524E-01
C12 -1.201852882435E-01 -1.879860515460E-01 -1.921153928524E-01
C13  6.110711804049E-02  9.743212642744E-02  9.610318400822E-02
C14 -6.110711804049E-02 -9.743212642744E-02 -9.610318400822E-02
C15  8.843312625709E-02  2.142477088394E-01  3.446303225653E-02
C16 -8.843312625709E-02 -2.142477088394E-01 -3.446303225653E-02
C17 -2.944956871419E-02 -1.233221912012E-01  6.061367907624E-02
C18  2.944956871419E-02  1.233221912012E-01 -6.061367907624E-02
C19 -5.617311941843E-02 -2.406029731376E-01  1.231567075669E-01
C20  5.617311941843E-02  2.406029731376E-01 -1.231567075669E-01
C21  2.825755877286E-03 -1.497825626690E-01  2.172643102455E-01
C22 -2.825755877286E-03  1.497825626690E-01 -2.172643102455E-01
H23  1.725322474402E-01  1.120822335738E-01  4.834421984708E-01
H24 -1.725322474402E-01 -1.120822335738E-01 -4.834421984708E-01
H25 -9.242185578763E-02 -4.354711585702E-01  2.539478644490E-01
H26  9.242185578763E-02  4.354711585702E-01 -2.539478644490E-01
H27  1.612856799806E-02 -2.708766986428E-01  4.215759017714E-01
H28 -1.612856799806E-02  2.708766986428E-01 -4.215759017714E-01
H29  2.173152873534E-01  3.306280504980E-01  3.763795320685E-01
H30 -2.173152873534E-01 -3.306280504980E-01 -3.763795320685E-01
H31  1.898153129332E-01  3.550891692426E-01  2.191011236126E-01
H32 -1.898153129332E-01 -3.550891692426E-01 -2.191011236126E-01
H33  1.576612426392E-01  3.815476689114E-01  6.138454025790E-02
H34 -1.576612426392E-01 -3.815476689114E-01 -6.138454025790E-02
H35 -1.250654569517E-01 -4.081173515212E-01  9.618090291023E-02
H36  1.250654569517E-01  4.081173515212E-01 -9.618090291023E-02
C37 -4.507555399003E-01 -4.319783612181E-01  3.988619558530E-01
C38  4.507555399003E-01  4.319783612181E-01 -3.988619558530E-01
C39  4.919144538457E-01 -3.168520459108E-01  3.273949126058E-01
C40 -4.919144538457E-01  3.168520459108E-01 -3.273949126058E-01
C41 -4.895518349846E-01 -4.152124110641E-01  2.412202624985E-01
C42  4.895518349846E-01  4.152124110641E-01 -2.412202624985E-01
C43  4.545281964123E-01 -3.010394300489E-01  1.677307144681E-01
C44 -4.545281964123E-01  3.010394300489E-01 -1.677307144681E-01
C45  4.757963816660E-01 -3.974393560476E-01  8.348594401678E-02
C46 -4.757963816660E-01  3.974393560476E-01 -8.348594401678E-02
C47  4.214438572047E-01 -2.820849103990E-01  9.337802891555E-03
C48 -4.214438572047E-01  2.820849103990E-01 -9.337802891555E-03
C49 -4.438574464615E-01  3.780313674827E-01  7.381744607797E-02
C50  4.438574464615E-01 -3.780313674827E-01 -7.381744607797E-02
C51 -3.886744533848E-01  2.631094350741E-01  1.490841346584E-01
C52  3.886744533848E-01 -2.631094350741E-01 -1.490841346584E-01
C53 -4.094555343813E-01  3.604251660290E-01  2.316072063557E-01
C54  4.094555343813E-01 -3.604251660290E-01 -2.316072063557E-01
C55 -3.508235594607E-01  2.466279941616E-01  3.088568975745E-01
C56  3.508235594607E-01 -2.466279941616E-01 -3.088568975745E-01
C57 -3.710201277319E-01  3.468319843974E-01  3.895340679156E-01
C58  3.710201277319E-01 -3.468319843974E-01 -3.895340679156E-01
H59 -4.651790783338E-01 -3.540496230738E-01  4.648224515423E-01
H60  4.651790783338E-01  3.540496230738E-01 -4.648224515423E-01
H61  4.311489301043E-01 -1.464729045482E-01  3.349102430498E-01
H62 -4.311489301043E-01  1.464729045482E-01 -3.349102430498E-01
H63  3.932449184768E-01 -1.307214921124E-01  1.751070221502E-01
H64 -3.932449184768E-01  1.307214921124E-01 -1.751070221502E-01
H65  3.599845014815E-01 -1.118756354279E-01  1.671546086488E-02
H66 -3.599845014815E-01  1.118756354279E-01 -1.671546086488E-02
H67 -3.270160275343E-01  9.295661585259E-02  1.417959171919E-01
H68  3.270160275343E-01 -9.295661585259E-02 -1.417959171919E-01
H69 -2.882281899906E-01  7.721488743037E-02  3.018204712669E-01
H70  2.882281899906E-01 -7.721488743037E-02 -3.018204712669E-01
H71 -3.249674205604E-01  2.584406178286E-01  4.486026554098E-01
H72  3.249674205604E-01 -2.584406178286E-01 -4.486026554098E-01


#===END

data_OPT_STEP_32

_symmetry_space_group_name_H-M 'P 1'
_cell_length_a      7.90688276
_cell_length_b      6.06962254
_cell_length_c     16.04548738
_cell_angle_alpha  101.800098
_cell_angle_beta  112.404520
_cell_angle_gamma   85.859668

loop_
_atom_site_label
_atom_site_fract_x
_atom_site_fract_y
_atom_site_fract_z
C1  1.256450065895E-01  4.121933967148E-02  4.086571110553E-01
C2 -1.256450065895E-01 -4.121933967148E-02 -4.086571110553E-01
C3 -2.319984574359E-02 -2.684915459986E-01  2.811339988999E-01
C4  2.319984574359E-02  2.684915459986E-01 -2.811339988999E-01
C5  3.697668383505E-02 -1.770715456013E-01  3.735482673925E-01
C6 -3.697668383505E-02  1.770715456013E-01 -3.735482673925E-01
C7  1.514042874235E-01  1.613330869401E-01  3.502247862833E-01
C8 -1.514042874235E-01 -1.613330869401E-01 -3.502247862833E-01
C9  9.247210355597E-02  7.102248327739E-02  2.526778122766E-01
C10 -9.247210355597E-02 -7.102248327739E-02 -2.526778122766E-01
C11  1.200708913079E-01  1.880895312615E-01  1.921278419846E-01
C12 -1.200708913079E-01 -1.880895312615E-01 -1.921278419846E-01
C13  6.111533324809E-02  9.743789542990E-02  9.611150753133E-02
C14 -6.111533324809E-02 -9.743789542990E-02 -9.611150753133E-02
C15  8.847637285905E-02  2.142390898968E-01  3.447131589581E-02
C16 -8.847637285905E-02 -2.142390898968E-01 -3.447131589581E-02
C17 -2.943870818190E-02 -1.233460993127E-01  6.062152537792E-02
C18  2.943870818190E-02  1.233460993127E-01 -6.062152537792E-02
C19 -5.619175728764E-02 -2.406191613065E-01  1.231701234767E-01
C20  5.619175728764E-02  2.406191613065E-01 -1.231701234767E-01
C21  2.713452407400E-03 -1.497277485512E-01  2.172849275766E-01
C22 -2.713452407400E-03  1.497277485512E-01 -2.172849275766E-01
H23  1.725730741682E-01  1.121144793347E-01  4.835085599457E-01
H24 -1.725730741682E-01 -1.121144793347E-01 -4.835085599457E-01
H25 -9.253643674683E-02 -4.354521855982E-01  2.539784765856E-01
H26  9.253643674683E-02  4.354521855982E-01 -2.539784765856E-01
H27  1.618654414763E-02 -2.709356154118E-01  4.216455564050E-01
H28 -1.618654414763E-02  2.709356154118E-01 -4.216455564050E-01
H29  2.172693501512E-01  3.306648780822E-01  3.763911310040E-01
H30 -2.172693501512E-01 -3.306648780822E-01 -3.763911310040E-01
H31  1.897599123203E-01  3.551749472808E-01  2.191205868702E-01
H32 -1.897599123203E-01 -3.551749472808E-01 -2.191205868702E-01
H33  1.577096913089E-01  3.815738424639E-01  6.139538706220E-02
H34 -1.577096913089E-01 -3.815738424639E-01 -6.139538706220E-02
H35 -1.248793289587E-01 -4.082853561826E-01  9.620791202463E-02
H36  1.248793289587E-01  4.082853561826E-01 -9.620791202463E-02
C37 -4.509702122317E-01 -4.318503587088E-01  3.989051145330E-01
C38  4.509702122317E-01  4.318503587088E-01 -3.989051145330E-01
C39  4.918211759857E-01 -3.167052622086E-01  3.274169472315E-01
C40 -4.918211759857E-01  3.167052622086E-01 -3.274169472315E-01
C41 -4.895861540084E-01 -4.150867271660E-01  2.412525990104E-01
C42  4.895861540084E-01  4.150867271660E-01 -2.412525990104E-01
C43  4.545823484618E-01 -3.008786713484E-01  1.677439487039E-01
C44 -4.545823484618E-01  3.008786713484E-01 -1.677439487039E-01
C45  4.757464140461E-01 -3.974010807075E-01  8.347643459506E-02
C46 -4.757464140461E-01  3.974010807075E-01 -8.347643459506E-02
C47  4.215648909527E-01 -2.819596364134E-01  9.323178103546E-03
C48 -4.215648909527E-01  2.819596364134E-01 -9.323178103546E-03
C49 -4.439986038860E-01  3.779657883579E-01  7.382660411110E-02
C50  4.439986038860E-01 -3.779657883579E-01 -7.382660411110E-02
C51 -3.886846083647E-01  2.631330196699E-01  1.491595992441E-01
C52  3.886846083647E-01 -2.631330196699E-01 -1.491595992441E-01
C53 -4.094393507619E-01  3.605461356702E-01  2.316860195177E-01
C54  4.094393507619E-01 -3.605461356702E-01 -2.316860195177E-01
C55 -3.509041534114E-01  2.467264497962E-01  3.089644858731E-01
C56  3.509041534114E-01 -2.467264497962E-01 -3.089644858731E-01
C57 -3.711683855509E-01  3.469755277748E-01  3.896349000633E-01
C58  3.711683855509E-01 -3.469755277748E-01 -3.896349000633E-01
H59 -4.653664136874E-01 -3.538140500457E-01  4.648357622091E-01
H60  4.653664136874E-01  3.538140500457E-01 -4.648357622091E-01
H61  4.310589418309E-01 -1.462940752313E-01  3.349039190219E-01
H62 -4.310589418309E-01  1.462940752313E-01 -3.349039190219E-01
H63  3.932947655173E-01 -1.305340914616E-01  1.750922436525E-01
H64 -3.932947655173E-01  1.305340914616E-01 -1.750922436525E-01
H65  3.600568460650E-01 -1.117390501282E-01  1.666590716345E-02
H66 -3.600568460650E-01  1.117390501282E-01 -1.666590716345E-02
H67 -3.267831374968E-01  9.309235128803E-02  1.419388020737E-01
H68  3.267831374968E-01 -9.309235128803E-02 -1.419388020737E-01
H69 -2.882980180175E-01  7.729525759512E-02  3.019586426195E-01
H70  2.882980180175E-01 -7.729525759512E-02 -3.019586426195E-01
H71 -3.251499651272E-01  2.586040431146E-01  4.487345374250E-01
H72  3.251499651272E-01 -2.586040431146E-01 -4.487345374250E-01


#===END

data_OPT_STEP_33

_symmetry_space_group_name_H-M 'P 1'
_cell_length_a      7.90997412
_cell_length_b      6.06796954
_cell_length_c     16.04560926
_cell_angle_alpha  101.787920
_cell_angle_beta  112.430872
_cell_angle_gamma   85.862101

loop_
_atom_site_label
_atom_site_fract_x
_atom_site_fract_y
_atom_site_fract_z
C1  1.254692356425E-01  4.129298221294E-02  4.086692480998E-01
C2 -1.254692356425E-01 -4.129298221294E-02 -4.086692480998E-01
C3 -2.334611248445E-02 -2.685041494037E-01  2.811264791197E-01
C4  2.334611248445E-02  2.685041494037E-01 -2.811264791197E-01
C5  3.680261914825E-02 -1.770486695971E-01  3.735493436450E-01
C6 -3.680261914825E-02  1.770486695971E-01 -3.735493436450E-01
C7  1.512529224243E-01  1.614231508153E-01  3.502378857738E-01
C8 -1.512529224243E-01 -1.614231508153E-01 -3.502378857738E-01
C9  9.234839548342E-02  7.108243754630E-02  2.526835524607E-01
C10 -9.234839548342E-02 -7.108243754630E-02 -2.526835524607E-01
C11  1.200109762397E-01  1.881460178006E-01  1.921404375546E-01
C12 -1.200109762397E-01 -1.881460178006E-01 -1.921404375546E-01
C13  6.109665540125E-02  9.746149325485E-02  9.611546167211E-02
C14 -6.109665540125E-02 -9.746149325485E-02 -9.611546167211E-02
C15  8.850471620798E-02  2.142730540444E-01  3.448527478307E-02
C16 -8.850471620798E-02 -2.142730540444E-01 -3.448527478307E-02
C17 -2.951818278318E-02 -1.233310412353E-01  6.061508066331E-02
C18  2.951818278318E-02  1.233310412353E-01 -6.061508066331E-02
C19 -5.633387175506E-02 -2.405984802449E-01  1.231562002722E-01
C20  5.633387175506E-02  2.405984802449E-01 -1.231562002722E-01
C21  2.568413951474E-03 -1.496978988335E-01  2.172801337070E-01
C22 -2.568413951474E-03  1.496978988335E-01 -2.172801337070E-01
H23  1.724007123862E-01  1.122009446544E-01  4.835282618061E-01
H24 -1.724007123862E-01 -1.122009446544E-01 -4.835282618061E-01
H25 -9.258572038213E-02 -4.355626216952E-01  2.539708090779E-01
H26  9.258572038213E-02  4.355626216952E-01 -2.539708090779E-01
H27  1.605411422473E-02 -2.709667891022E-01  4.216487874308E-01
H28 -1.605411422473E-02  2.709667891022E-01 -4.216487874308E-01
H29  2.171383196310E-01  3.307773513901E-01  3.764093018468E-01
H30 -2.171383196310E-01 -3.307773513901E-01 -3.764093018468E-01
H31  1.897500680902E-01  3.552342682889E-01  2.191472813716E-01
H32 -1.897500680902E-01 -3.552342682889E-01 -2.191472813716E-01
H33  1.577109707589E-01  3.816665129056E-01  6.141612143645E-02
H34 -1.577109707589E-01 -3.816665129056E-01 -6.141612143645E-02
H35 -1.250614083391E-01 -4.082748369035E-01  9.618506919080E-02
H36  1.250614083391E-01  4.082748369035E-01 -9.618506919080E-02
C37 -4.511358325772E-01 -4.318378143723E-01  3.988911103820E-01
C38  4.511358325772E-01  4.318378143723E-01 -3.988911103820E-01
C39  4.916432868879E-01 -3.167055892413E-01  3.273697108148E-01
C40 -4.916432868879E-01  3.167055892413E-01 -3.273697108148E-01
C41 -4.897449443408E-01 -4.151040178292E-01  2.412227142911E-01
C42  4.897449443408E-01  4.151040178292E-01 -2.412227142911E-01
C43  4.544792885375E-01 -3.008629045154E-01  1.676928237066E-01
C44 -4.544792885375E-01  3.008629045154E-01 -1.676928237066E-01
C45  4.757057154330E-01 -3.973852053011E-01  8.345292289823E-02
C46 -4.757057154330E-01  3.973852053011E-01 -8.345292289823E-02
C47  4.215950596436E-01 -2.819037528679E-01  9.282654336723E-03
C48 -4.215950596436E-01  2.819037528679E-01 -9.282654336723E-03
C49 -4.440439087762E-01  3.779376780251E-01  7.384938439784E-02
C50  4.440439087762E-01 -3.779376780251E-01 -7.384938439784E-02
C51 -3.887854474360E-01  2.630814159970E-01  1.492001911833E-01
C52  3.887854474360E-01 -2.630814159970E-01 -1.492001911833E-01
C53 -4.095551434173E-01  3.605201744299E-01  2.317112981449E-01
C54  4.095551434173E-01 -3.605201744299E-01 -2.317112981449E-01
C55 -3.509998470199E-01  2.467129059172E-01  3.090235163075E-01
C56  3.509998470199E-01 -2.467129059172E-01 -3.090235163075E-01
C57 -3.712798547704E-01  3.469883850420E-01  3.896786375872E-01
C58  3.712798547704E-01 -3.469883850420E-01 -3.896786375872E-01
H59 -4.654573312030E-01 -3.537328753521E-01  4.648165080435E-01
H60  4.654573312030E-01  3.537328753521E-01 -4.648165080435E-01
H61  4.308574684406E-01 -1.462799537931E-01  3.348168879529E-01
H62 -4.308574684406E-01  1.462799537931E-01 -3.348168879529E-01
H63  3.931983069177E-01 -1.304890004712E-01  1.750076551324E-01
H64 -3.931983069177E-01  1.304890004712E-01 -1.750076551324E-01
H65  3.601082957102E-01 -1.116406289760E-01  1.659313793068E-02
H66 -3.601082957102E-01  1.116406289760E-01 -1.659313793068E-02
H67 -3.268925413565E-01  9.300861788899E-02  1.420142624261E-01
H68  3.268925413565E-01 -9.300861788899E-02 -1.420142624261E-01
H69 -2.883275754392E-01  7.729451012404E-02  3.020662376192E-01
H70  2.883275754392E-01 -7.729451012404E-02 -3.020662376192E-01
H71 -3.252258092981E-01  2.586408437237E-01  4.488079004866E-01
H72  3.252258092981E-01 -2.586408437237E-01 -4.488079004866E-01


#===END

data_OPT_STEP_34

_symmetry_space_group_name_H-M 'P 1'
_cell_length_a      7.91422540
_cell_length_b      6.06364239
_cell_length_c     16.04260630
_cell_angle_alpha  101.758214
_cell_angle_beta  112.456216
_cell_angle_gamma   85.862513

loop_
_atom_site_label
_atom_site_fract_x
_atom_site_fract_y
_atom_site_fract_z
C1  1.252094978365E-01  4.129537317957E-02  4.087432056857E-01
C2 -1.252094978365E-01 -4.129537317957E-02 -4.087432056857E-01
C3 -2.348194986164E-02 -2.686851181316E-01  2.811925109158E-01
C4  2.348194986164E-02  2.686851181316E-01 -2.811925109158E-01
C5  3.659654558539E-02 -1.771899377675E-01  3.736271925164E-01
C6 -3.659654558539E-02  1.771899377675E-01 -3.736271925164E-01
C7  1.511198521724E-01  1.614378799638E-01  3.502988990215E-01
C8 -1.511198521724E-01 -1.614378799638E-01 -3.502988990215E-01
C9  9.235443739157E-02  7.099845086654E-02  2.527365482514E-01
C10 -9.235443739157E-02 -7.099845086654E-02 -2.527365482514E-01
C11  1.200864750982E-01  1.881106583400E-01  1.921798164912E-01
C12 -1.200864750982E-01 -1.881106583400E-01 -1.921798164912E-01
C13  6.114553503376E-02  9.745235200550E-02  9.613940593893E-02
C14 -6.114553503376E-02 -9.745235200550E-02 -9.613940593893E-02
C15  8.869330870869E-02  2.142389185435E-01  3.449662914553E-02
C16 -8.869330870869E-02 -2.142389185435E-01 -3.449662914553E-02
C17 -2.966324495436E-02 -1.233279402927E-01  6.062305735608E-02
C18  2.966324495436E-02  1.233279402927E-01 -6.062305735607E-02
C19 -5.638629809491E-02 -2.407436758702E-01  1.231953630101E-01
C20  5.638629809491E-02  2.407436758702E-01 -1.231953630101E-01
C21  2.552282161752E-03 -1.498615631713E-01  2.173355882968E-01
C22 -2.552282161752E-03  1.498615631713E-01 -2.173355882968E-01
H23  1.718963932623E-01  1.123739013133E-01  4.836011502030E-01
H24 -1.718963932623E-01 -1.123739013133E-01 -4.836011502030E-01
H25 -9.262080504152E-02 -4.358822781778E-01  2.540437726103E-01
H26  9.262080504152E-02  4.358822781778E-01 -2.540437726103E-01
H27  1.581829606310E-02 -2.712153107068E-01  4.217259997766E-01
H28 -1.581829606310E-02  2.712153107068E-01 -4.217259997766E-01
H29  2.169909164704E-01  3.308808682736E-01  3.764603306337E-01
H30 -2.169909164704E-01 -3.308808682736E-01 -3.764603306337E-01
H31  1.897917401705E-01  3.553007294869E-01  2.191841224006E-01
H32 -1.897917401705E-01 -3.553007294869E-01 -2.191841224006E-01
H33  1.579608882912E-01  3.816717492602E-01  6.142654420896E-02
H34 -1.579608882912E-01 -3.816717492602E-01 -6.142654420896E-02
H35 -1.250659176304E-01 -4.085288244733E-01  9.622791233454E-02
H36  1.250659176304E-01  4.085288244733E-01 -9.622791233454E-02
C37 -4.514134360803E-01 -4.314394887531E-01  3.989446045375E-01
C38  4.514134360803E-01  4.314394887531E-01 -3.989446045375E-01
C39  4.914913704005E-01 -3.162588110208E-01  3.273649698071E-01
C40 -4.914913704005E-01  3.162588110208E-01 -3.273649698071E-01
C41 -4.899414942887E-01 -4.148500154203E-01  2.412278924283E-01
C42  4.899414942887E-01  4.148500154203E-01 -2.412278924283E-01
C43  4.543859896362E-01 -3.005800080589E-01  1.676358957067E-01
C44 -4.543859896362E-01  3.005800080589E-01 -1.676358957067E-01
C45  4.756959987996E-01 -3.972227657740E-01  8.342945688565E-02
C46 -4.756959987996E-01  3.972227657740E-01 -8.342945688565E-02
C47  4.215431174341E-01 -2.817975579131E-01  9.168107457840E-03
C48 -4.215431174341E-01  2.817975579131E-01 -9.168107457840E-03
C49 -4.440169673654E-01  3.779823109797E-01  7.393984842486E-02
C50  4.440169673654E-01 -3.779823109797E-01 -7.393984842486E-02
C51 -3.888695147259E-01  2.631019476875E-01  1.493549368508E-01
C52  3.888695147259E-01 -2.631019476875E-01 -1.493549368508E-01
C53 -4.097375732744E-01  3.606470124084E-01  2.318273693431E-01
C54  4.097375732744E-01 -3.606470124084E-01 -2.318273693431E-01
C55 -3.512037566124E-01  2.468705927712E-01  3.092226406179E-01
C56  3.512037566124E-01 -2.468705927712E-01 -3.092226406179E-01
C57 -3.714751990839E-01  3.473074717672E-01  3.898535632913E-01
C58  3.714751990839E-01 -3.473074717672E-01 -3.898535632913E-01
H59 -4.657543826827E-01 -3.532265781929E-01  4.648373600732E-01
H60  4.657543826827E-01  3.532265781929E-01 -4.648373600732E-01
H61  4.308655594063E-01 -1.456521927585E-01  3.347579142823E-01
H62 -4.308655594063E-01  1.456521927585E-01 -3.347579142823E-01
H63  3.931786125103E-01 -1.300658455975E-01  1.748808370131E-01
H64 -3.931786125103E-01  1.300658455975E-01 -1.748808370131E-01
H65  3.599927509248E-01 -1.114613148412E-01  1.638452039149E-02
H66 -3.599927509248E-01  1.114613148412E-01 -1.638452039149E-02
H67 -3.269174616010E-01  9.295926826499E-02  1.422584474201E-01
H68  3.269174616010E-01 -9.295926826499E-02 -1.422584474201E-01
H69 -2.885035896512E-01  7.736852152813E-02  3.023477541468E-01
H70  2.885035896512E-01 -7.736852152813E-02 -3.023477541468E-01
H71 -3.254282623572E-01  2.589906438729E-01  4.490480328266E-01
H72  3.254282623572E-01 -2.589906438729E-01 -4.490480328266E-01


#===END

data_OPT_STEP_35

_symmetry_space_group_name_H-M 'P 1'
_cell_length_a      7.92051756
_cell_length_b      6.06067488
_cell_length_c     16.03879329
_cell_angle_alpha  101.727569
_cell_angle_beta  112.482733
_cell_angle_gamma   85.865521

loop_
_atom_site_label
_atom_site_fract_x
_atom_site_fract_y
_atom_site_fract_z
C1  1.250971495468E-01  4.137281415448E-02  4.088621679869E-01
C2 -1.250971495468E-01 -4.137281415448E-02 -4.088621679869E-01
C3 -2.358310309430E-02 -2.686556880566E-01  2.813121831369E-01
C4  2.358310309430E-02  2.686556880566E-01 -2.813121831369E-01
C5  3.648284565420E-02 -1.771484864212E-01  3.737641006276E-01
C6 -3.648284565420E-02  1.771484864212E-01 -3.737641006276E-01
C7  1.509647153629E-01  1.615753216072E-01  3.503834185197E-01
C8 -1.509647153629E-01 -1.615753216072E-01 -3.503834185197E-01
C9  9.223953225874E-02  7.109834614425E-02  2.528043649073E-01
C10 -9.223953225874E-02 -7.109834614425E-02 -2.528043649073E-01
C11  1.200111277588E-01  1.882007367204E-01  1.922153263181E-01
C12 -1.200111277588E-01 -1.882007367204E-01 -1.922153263181E-01
C13  6.108320578309E-02  9.751357414632E-02  9.615914845561E-02
C14 -6.108320578309E-02 -9.751357414632E-02 -9.615914845561E-02
C15  8.857345658766E-02  2.143563536131E-01  3.447164692284E-02
C16 -8.857345658766E-02 -2.143563536131E-01 -3.447164692284E-02
C17 -2.969523932768E-02 -1.233232913994E-01  6.065844994803E-02
C18  2.969523932768E-02  1.233232913994E-01 -6.065844994803E-02
C19 -5.659251280582E-02 -2.406274644942E-01  1.232543973247E-01
C20  5.659251280582E-02  2.406274644942E-01 -1.232543973247E-01
C21  2.391272086910E-03 -1.497699507719E-01  2.174140071043E-01
C22 -2.391272086910E-03  1.497699507719E-01 -2.174140071043E-01
H23  1.718627314331E-01  1.124070295473E-01  4.837378920625E-01
H24 -1.718627314331E-01 -1.124070295473E-01 -4.837378920625E-01
H25 -9.269615817166E-02 -4.358979597676E-01  2.541724283520E-01
H26  9.269615817166E-02  4.358979597676E-01 -2.541724283520E-01
H27  1.566913649079E-02 -2.712162116155E-01  4.218769147876E-01
H28 -1.566913649079E-02  2.712162116155E-01 -4.218769147876E-01
H29  2.167852317833E-01  3.310756544233E-01  3.765209488730E-01
H30 -2.167852317833E-01 -3.310756544233E-01 -3.765209488730E-01
H31  1.896678926368E-01  3.554551887042E-01  2.192050492170E-01
H32 -1.896678926368E-01 -3.554551887042E-01 -2.192050492170E-01
H33  1.578106132558E-01  3.818433419804E-01  6.138727889071E-02
H34 -1.578106132558E-01 -3.818433419804E-01 -6.138727889071E-02
H35 -1.253955696642E-01 -4.083645573037E-01  9.628848972861E-02
H36  1.253955696642E-01  4.083645573037E-01 -9.628848972861E-02
C37 -4.515877384647E-01 -4.310663476676E-01  3.990276895029E-01
C38  4.515877384647E-01  4.310663476676E-01 -3.990276895029E-01
C39  4.912689150707E-01 -3.159946693809E-01  3.273472457005E-01
C40 -4.912689150707E-01  3.159946693809E-01 -3.273472457005E-01
C41 -4.900418769986E-01 -4.146413520513E-01  2.412540113966E-01
C42  4.900418769986E-01  4.146413520513E-01 -2.412540113966E-01
C43  4.543313322201E-01 -3.003982772899E-01  1.675893755914E-01
C44 -4.543313322201E-01  3.003982772899E-01 -1.675893755914E-01
C45  4.756732061744E-01 -3.971309875635E-01  8.340549101842E-02
C46 -4.756732061744E-01  3.971309875635E-01 -8.340549101842E-02
C47  4.215969231464E-01 -2.817082219908E-01  9.075190978283E-03
C48 -4.215969231464E-01  2.817082219908E-01 -9.075190978283E-03
C49 -4.440272631970E-01  3.780196613399E-01  7.402477131031E-02
C50  4.440272631970E-01 -3.780196613399E-01 -7.402477131031E-02
C51 -3.888628605718E-01  2.632003879477E-01  1.495333096482E-01
C52  3.888628605718E-01 -2.632003879477E-01 -1.495333096482E-01
C53 -4.097223429526E-01  3.608642747211E-01  2.319863133390E-01
C54  4.097223429526E-01 -3.608642747211E-01 -2.319863133390E-01
C55 -3.512398232949E-01  2.471250319673E-01  3.094645567927E-01
C56  3.512398232949E-01 -2.471250319673E-01 -3.094645567927E-01
C57 -3.716355128916E-01  3.476130088278E-01  3.900520793476E-01
C58  3.716355128916E-01 -3.476130088278E-01 -3.900520793476E-01
H59 -4.659707970943E-01 -3.526771141886E-01  4.648965268641E-01
H60  4.659707970943E-01  3.526771141886E-01 -4.648965268641E-01
H61  4.304645236047E-01 -1.454261424162E-01  3.346196460471E-01
H62 -4.304645236047E-01  1.454261424162E-01 -3.346196460471E-01
H63  3.931698373760E-01 -1.298101967230E-01  1.747613334483E-01
H64 -3.931698373760E-01  1.298101967230E-01 -1.747613334483E-01
H65  3.601794939438E-01 -1.112486626269E-01  1.624017095061E-02
H66 -3.601794939438E-01  1.112486626269E-01 -1.624017095061E-02
H67 -3.269143968177E-01  9.300653124847E-02  1.425125744666E-01
H68  3.269143968177E-01 -9.300653124847E-02 -1.425125744666E-01
H69 -2.884468323904E-01  7.762632976419E-02  3.026856895517E-01
H70  2.884468323904E-01 -7.762632976419E-02 -3.026856895517E-01
H71 -3.256759056353E-01  2.592962143554E-01  4.493033133348E-01
H72  3.256759056353E-01 -2.592962143554E-01 -4.493033133348E-01


#===END

data_OPT_STEP_36

_symmetry_space_group_name_H-M 'P 1'
_cell_length_a      7.93253810
_cell_length_b      6.05170760
_cell_length_c     16.03438217
_cell_angle_alpha  101.669278
_cell_angle_beta  112.542009
_cell_angle_gamma   85.898552

loop_
_atom_site_label
_atom_site_fract_x
_atom_site_fract_y
_atom_site_fract_z
C1  1.246791814876E-01  4.128683526251E-02  4.089794717007E-01
C2 -1.246791814876E-01 -4.128683526251E-02 -4.089794717007E-01
C3 -2.389150142759E-02 -2.691152398635E-01  2.813891473342E-01
C4  2.389150142759E-02  2.691152398635E-01 -2.813891473342E-01
C5  3.597860906588E-02 -1.774133513573E-01  3.738709150085E-01
C6 -3.597860906588E-02  1.774133513573E-01 -3.738709150085E-01
C7  1.505383163942E-01  1.616977328689E-01  3.504735895372E-01
C8 -1.505383163942E-01 -1.616977328689E-01 -3.504735895372E-01
C9  9.183406117125E-02  7.117694339107E-02  2.528608656505E-01
C10 -9.183406117125E-02 -7.117694339107E-02 -2.528608656505E-01
C11  1.198632258776E-01  1.883205117746E-01  1.922718152781E-01
C12 -1.198632258776E-01 -1.883205117746E-01 -1.922718152781E-01
C13  6.106440111463E-02  9.754307358642E-02  9.618668498519E-02
C14 -6.106440111463E-02 -9.754307358642E-02 -9.618668498519E-02
C15  8.862062747927E-02  2.145848387376E-01  3.449457850713E-02
C16 -8.862062747927E-02 -2.145848387376E-01 -3.449457850713E-02
C17 -2.966227697131E-02 -1.235809717954E-01  6.067449037316E-02
C18  2.966227697131E-02  1.235809717954E-01 -6.067449037316E-02
C19 -5.666191901809E-02 -2.410558082860E-01  1.232768158772E-01
C20  5.666191901809E-02  2.410558082860E-01 -1.232768158772E-01
C21  2.046680879356E-03 -1.499866700054E-01  2.174625402805E-01
C22 -2.046680879356E-03  1.499866700054E-01 -2.174625402805E-01
H23  1.716645736783E-01  1.122171913591E-01  4.838951786200E-01
H24 -1.716645736783E-01 -1.122171913591E-01 -4.838951786200E-01
H25 -9.287412669154E-02 -4.366392620675E-01  2.542523068058E-01
H26  9.287412669154E-02  4.366392620675E-01 -2.542523068058E-01
H27  1.536320990760E-02 -2.717234792920E-01  4.220322488559E-01
H28 -1.536320990760E-02  2.717234792920E-01 -4.220322488559E-01
H29  2.163446128074E-01  3.314088266836E-01  3.766189689090E-01
H30 -2.163446128074E-01 -3.314088266836E-01 -3.766189689090E-01
H31  1.896819554713E-01  3.556616434153E-01  2.192926667625E-01
H32 -1.896819554713E-01 -3.556616434153E-01 -2.192926667625E-01
H33  1.578896464855E-01  3.822618608013E-01  6.143301855016E-02
H34 -1.578896464855E-01 -3.822618608013E-01 -6.143301855016E-02
H35 -1.253410731783E-01 -4.090724377818E-01  9.630671000384E-02
H36  1.253410731783E-01  4.090724377818E-01 -9.630671000384E-02
C37 -4.517608935478E-01 -4.304654024894E-01  3.991547669400E-01
C38  4.517608935478E-01  4.304654024894E-01 -3.991547669400E-01
C39  4.909842390436E-01 -3.155295282027E-01  3.273036702711E-01
C40 -4.909842390436E-01  3.155295282027E-01 -3.273036702711E-01
C41 -4.903743639140E-01 -4.144044629877E-01  2.412414180619E-01
C42  4.903743639140E-01  4.144044629877E-01 -2.412414180619E-01
C43  4.538672723261E-01 -3.002697367710E-01  1.674137284957E-01
C44 -4.538672723261E-01  3.002697367710E-01 -1.674137284957E-01
C45  4.753681033248E-01 -3.970884134826E-01  8.330359977453E-02
C46 -4.753681033248E-01  3.970884134826E-01 -8.330359977453E-02
C47  4.214557372318E-01 -2.815906106679E-01  8.867683640302E-03
C48 -4.214557372318E-01  2.815906106679E-01 -8.867683640302E-03
C49 -4.443057699364E-01  3.778677902995E-01  7.411544258894E-02
C50  4.443057699364E-01 -3.778677902995E-01 -7.411544258894E-02
C51 -3.892719777806E-01  2.629937021554E-01  1.497358714557E-01
C52  3.892719777806E-01 -2.629937021554E-01 -1.497358714557E-01
C53 -4.101160169182E-01  3.608776851774E-01  2.321537727556E-01
C54  4.101160169182E-01 -3.608776851774E-01 -2.321537727556E-01
C55 -3.515889738239E-01  2.471966496231E-01  3.097926927782E-01
C56  3.515889738239E-01 -2.471966496231E-01 -3.097926927782E-01
C57 -3.719445909359E-01  3.479280638870E-01  3.903465478353E-01
C58  3.719445909359E-01 -3.479280638870E-01 -3.903465478353E-01
H59 -4.661569455483E-01 -3.517570639139E-01  4.649830226628E-01
H60  4.661569455483E-01  3.517570639139E-01 -4.649830226628E-01
H61  4.301361229679E-01 -1.448245293676E-01  3.344189635444E-01
H62 -4.301361229678E-01  1.448245293676E-01 -3.344189635444E-01
H63  3.923976198844E-01 -1.296891648096E-01  1.743884575750E-01
H64 -3.923976198844E-01  1.296891648096E-01 -1.743884575750E-01
H65  3.598645079448E-01 -1.110767587956E-01  1.586352757128E-02
H66 -3.598645079448E-01  1.110767587956E-01 -1.586352757128E-02
H67 -3.276247438593E-01  9.248359550824E-02  1.427993616568E-01
H68  3.276247438593E-01 -9.248359550824E-02 -1.427993616568E-01
H69 -2.888661386752E-01  7.750700177663E-02  3.031455273963E-01
H70  2.888661386752E-01 -7.750700177663E-02 -3.031455273963E-01
H71 -3.259880408324E-01  2.596354397699E-01  4.497056548278E-01
H72  3.259880408324E-01 -2.596354397699E-01 -4.497056548278E-01


#===END

data_OPT_STEP_37

_symmetry_space_group_name_H-M 'P 1'
_cell_length_a      7.93636987
_cell_length_b      6.05278710
_cell_length_c     16.03154977
_cell_angle_alpha  101.624250
_cell_angle_beta  112.660930
_cell_angle_gamma   85.885537

loop_
_atom_site_label
_atom_site_fract_x
_atom_site_fract_y
_atom_site_fract_z
C1  1.244939463506E-01  4.111854630285E-02  4.091407756794E-01
C2 -1.244939463506E-01 -4.111854630285E-02 -4.091407756794E-01
C3 -2.445382365293E-02 -2.688977620014E-01  2.813978015667E-01
C4  2.445382365293E-02  2.688977620014E-01 -2.813978015667E-01
C5  3.565163201880E-02 -1.774509319028E-01  3.739575192727E-01
C6 -3.565163201880E-02  1.774509319028E-01 -3.739575192727E-01
C7  1.503627324439E-01  1.615427419598E-01  3.506305723210E-01
C8 -1.503627324439E-01 -1.615427419598E-01 -3.506305723210E-01
C9  9.146814749825E-02  7.122634666391E-02  2.529464321191E-01
C10 -9.146814749825E-02 -7.122634666391E-02 -2.529464321191E-01
C11  1.193918012419E-01  1.884814332808E-01  1.923509187419E-01
C12 -1.193918012419E-01 -1.884814332808E-01 -1.923509187419E-01
C13  6.070289955188E-02  9.767731666477E-02  9.621035831518E-02
C14 -6.070289955188E-02 -9.767731666477E-02 -9.621035831518E-02
C15  8.858621561469E-02  2.145466378877E-01  3.455613686897E-02
C16 -8.858621561469E-02 -2.145466378877E-01 -3.455613686897E-02
C17 -2.993092596331E-02 -1.234041155205E-01  6.065690888256E-02
C18  2.993092596331E-02  1.234041155205E-01 -6.065690888256E-02
C19 -5.718333651985E-02 -2.407623437113E-01  1.232294539732E-01
C20  5.718333651985E-02  2.407623437113E-01 -1.232294539732E-01
C21  1.557171444925E-03 -1.497905219433E-01  2.174763079793E-01
C22 -1.557171444925E-03  1.497905219433E-01 -2.174763079793E-01
H23  1.717035455804E-01  1.118309187909E-01  4.841200671416E-01
H24 -1.717035455804E-01 -1.118309187909E-01 -4.841200671416E-01
H25 -9.383984016214E-02 -4.361096434705E-01  2.541816686543E-01
H26  9.383984016214E-02  4.361096434705E-01 -2.541816686543E-01
H27  1.497962241309E-02 -2.718394490939E-01  4.220965271575E-01
H28 -1.497962241309E-02  2.718394490939E-01 -4.220965271575E-01
H29  2.160515821579E-01  3.312955911994E-01  3.767759121398E-01
H30 -2.160515821579E-01 -3.312955911994E-01 -3.767759121398E-01
H31  1.892481116657E-01  3.557527380147E-01  2.194210511907E-01
H32 -1.892481116657E-01 -3.557527380147E-01 -2.194210511907E-01
H33  1.577769349906E-01  3.822107461690E-01  6.153467878731E-02
H34 -1.577769349906E-01 -3.822107461690E-01 -6.153467878731E-02
H35 -1.260991108036E-01 -4.085726450397E-01  9.619413740935E-02
H36  1.260991108036E-01  4.085726450397E-01 -9.619413740935E-02
C37 -4.524565467806E-01 -4.298458434375E-01  3.991922465206E-01
C38  4.524565467806E-01  4.298458434375E-01 -3.991922465206E-01
C39  4.903588799665E-01 -3.150744582045E-01  3.271815488863E-01
C40 -4.903588799665E-01  3.150744582045E-01 -3.271815488863E-01
C41 -4.908495216842E-01 -4.140913576696E-01  2.411963133934E-01
C42  4.908495216842E-01  4.140913576696E-01 -2.411963133934E-01
C43  4.537012600424E-01 -2.999765085063E-01  1.672573068097E-01
C44 -4.537012600424E-01  2.999765085063E-01 -1.672573068097E-01
C45  4.754021380436E-01 -3.969013155135E-01  8.324440537802E-02
C46 -4.754021380436E-01  3.969013155135E-01 -8.324440537802E-02
C47  4.215212622416E-01 -2.815749028935E-01  8.657432565900E-03
C48 -4.215212622416E-01  2.815749028935E-01 -8.657432565900E-03
C49 -4.442995403589E-01  3.780603310606E-01  7.428170761562E-02
C50  4.442995403589E-01 -3.780603310606E-01 -7.428170761562E-02
C51 -3.894322630276E-01  2.633012783181E-01  1.500250542399E-01
C52  3.894322630276E-01 -2.633012783181E-01 -1.500250542399E-01
C53 -4.105081648764E-01  3.612339998131E-01  2.323566607754E-01
C54  4.105081648764E-01 -3.612339998131E-01 -2.323566607754E-01
C55 -3.519762002819E-01  2.477963704317E-01  3.101626460233E-01
C56  3.519762002819E-01 -2.477963704317E-01 -3.101626460233E-01
C57 -3.724819391793E-01  3.486431915425E-01  3.906422282523E-01
C58  3.724819391793E-01 -3.486431915425E-01 -3.906422282523E-01
H59 -4.668133387353E-01 -3.509130435625E-01  4.649858935367E-01
H60  4.668133387353E-01  3.509130435625E-01 -4.649858935367E-01
H61  4.295782625448E-01 -1.443582956638E-01  3.341353058415E-01
H62 -4.295782625448E-01  1.443582956638E-01 -3.341353058415E-01
H63  3.922022869957E-01 -1.294332893647E-01  1.740548132778E-01
H64 -3.922022869957E-01  1.294332893647E-01 -1.740548132778E-01
H65  3.600156896032E-01 -1.110390875974E-01  1.549737949476E-02
H66 -3.600156896032E-01  1.110390875974E-01 -1.549737949476E-02
H67 -3.278380218261E-01  9.277152348805E-02  1.432559930548E-01
H68  3.278380218261E-01 -9.277152348805E-02 -1.432559930548E-01
H69 -2.892624030105E-01  7.810826388552E-02  3.036903162141E-01
H70  2.892624030105E-01 -7.810826388552E-02 -3.036903162141E-01
H71 -3.266168699822E-01  2.604420409962E-01  4.501146252161E-01
H72  3.266168699822E-01 -2.604420409962E-01 -4.501146252161E-01


#===END

data_OPT_STEP_38

_symmetry_space_group_name_H-M 'P 1'
_cell_length_a      7.95315966
_cell_length_b      6.04633589
_cell_length_c     16.02904797
_cell_angle_alpha  101.624283
_cell_angle_beta  112.680844
_cell_angle_gamma   85.879215

loop_
_atom_site_label
_atom_site_fract_x
_atom_site_fract_y
_atom_site_fract_z
C1  1.250759223929E-01  4.065261418029E-02  4.092500324275E-01
C2 -1.250759223929E-01 -4.065261418029E-02 -4.092500324275E-01
C3 -2.408486695706E-02 -2.693867853965E-01  2.814530410965E-01
C4  2.408486695706E-02  2.693867853965E-01 -2.814530410965E-01
C5  3.628910695596E-02 -1.780335622554E-01  3.740587783400E-01
C6 -3.628910695596E-02  1.780335622554E-01 -3.740587783400E-01
C7  1.506677345016E-01  1.612923580178E-01  3.507135827655E-01
C8 -1.506677345016E-01 -1.612923580178E-01 -3.507135827655E-01
C9  9.173998978750E-02  7.094117341947E-02  2.529990968962E-01
C10 -9.173998978750E-02 -7.094117341947E-02 -2.529990968962E-01
C11  1.195539321964E-01  1.883951903224E-01  1.924090955879E-01
C12 -1.195539321964E-01 -1.883951903224E-01 -1.924090955879E-01
C13  6.094953452316E-02  9.758643789942E-02  9.625334053360E-02
C14 -6.094953452316E-02 -9.758643789942E-02 -9.625334053360E-02
C15  8.873740963563E-02  2.146273272155E-01  3.459934899708E-02
C16 -8.873740963563E-02 -2.146273272155E-01 -3.459934899708E-02
C17 -3.009908221503E-02 -1.234758610382E-01  6.063393504983E-02
C18  3.009908221503E-02  1.234758610382E-01 -6.063393504983E-02
C19 -5.702097828341E-02 -2.411271831484E-01  1.232382758364E-01
C20  5.702097828341E-02  2.411271831484E-01 -1.232382758364E-01
C21  1.965793907071E-03 -1.503184666987E-01  2.175138320656E-01
C22 -1.965793907071E-03  1.503184666987E-01 -2.175138320656E-01
H23  1.717053482127E-01  1.118314811886E-01  4.842231179819E-01
H24 -1.717053482127E-01 -1.118314811886E-01 -4.842231179819E-01
H25 -9.350712344181E-02 -4.366721041873E-01  2.542346928991E-01
H26  9.350712344181E-02  4.366721041873E-01 -2.542346928991E-01
H27  1.552152142884E-02 -2.721276936658E-01  4.222701061542E-01
H28 -1.552152142884E-02  2.721276936658E-01 -4.222701061542E-01
H29  2.162720665280E-01  3.311902057810E-01  3.768979064752E-01
H30 -2.162720665280E-01 -3.311902057810E-01 -3.768979064752E-01
H31  1.892220795126E-01  3.558835193213E-01  2.195111459260E-01
H32 -1.892220795126E-01 -3.558835193213E-01 -2.195111459260E-01
H33  1.579092809918E-01  3.824052677352E-01  6.160629053414E-02
H34 -1.579092809918E-01 -3.824052677352E-01 -6.160629053414E-02
H35 -1.259022834000E-01 -4.090503179220E-01  9.618863442926E-02
H36  1.259022834000E-01  4.090503179220E-01 -9.618863442926E-02
C37 -4.524337726280E-01 -4.289894155009E-01  3.993207394523E-01
C38  4.524337726280E-01  4.289894155009E-01 -3.993207394523E-01
C39  4.903874598936E-01 -3.142998420664E-01  3.272246067809E-01
C40 -4.903874598936E-01  3.142998420664E-01 -3.272246067809E-01
C41 -4.904771106240E-01 -4.133255708165E-01  2.413073903052E-01
C42  4.904771106240E-01  4.133255708165E-01 -2.413073903052E-01
C43  4.540180322547E-01 -2.993092299537E-01  1.672815415978E-01
C44 -4.540180322547E-01  2.993092299537E-01 -1.672815415978E-01
C45  4.755459866795E-01 -3.965591893624E-01  8.324854470708E-02
C46 -4.755459866795E-01  3.965591893624E-01 -8.324854470708E-02
C47  4.216195327904E-01 -2.813449136323E-01  8.577229800538E-03
C48 -4.216195327904E-01  2.813449136323E-01 -8.577229800538E-03
C49 -4.440691992390E-01  3.782652284272E-01  7.440046302637E-02
C50  4.440691992390E-01 -3.782652284272E-01 -7.440046302637E-02
C51 -3.888835486917E-01  2.637198918228E-01  1.502751412975E-01
C52  3.888835486917E-01 -2.637198918228E-01 -1.502751412975E-01
C53 -4.099738447585E-01  3.619287332934E-01  2.325853881057E-01
C54  4.099738447585E-01 -3.619287332934E-01 -2.325853881057E-01
C55 -3.518371872115E-01  2.483147170887E-01  3.103878946410E-01
C56  3.518371872115E-01 -2.483147170887E-01 -3.103878946410E-01
C57 -3.725998945991E-01  3.492505136327E-01  3.908216483364E-01
C58  3.725998945991E-01 -3.492505136327E-01 -3.908216483364E-01
H59 -4.670679602040E-01 -3.499408750261E-01  4.650809973254E-01
H60  4.670679602040E-01  3.499408750261E-01 -4.650809973254E-01
H61  4.294117777069E-01 -1.435350432724E-01  3.340858025076E-01
H62 -4.294117777069E-01  1.435350432724E-01 -3.340858025076E-01
H63  3.931138034694E-01 -1.283164216314E-01  1.741211877761E-01
H64 -3.931138034694E-01  1.283164216314E-01 -1.741211877761E-01
H65  3.601967448900E-01 -1.106304612742E-01  1.535442215847E-02
H66 -3.601967448900E-01  1.106304612742E-01 -1.535442215847E-02
H67 -3.265908184328E-01  9.346870834098E-02  1.437100904379E-01
H68  3.265908184328E-01 -9.346870834098E-02 -1.437100904379E-01
H69 -2.890462561857E-01  7.853174786991E-02  3.040022262413E-01
H70  2.890462561857E-01 -7.853174786991E-02 -3.040022262413E-01
H71 -3.270348187360E-01  2.608759056093E-01  4.502817535328E-01
H72  3.270348187360E-01 -2.608759056093E-01 -4.502817535328E-01


#===END

data_OPT_STEP_39

_symmetry_space_group_name_H-M 'P 1'
_cell_length_a      7.93958283
_cell_length_b      6.05202523
_cell_length_c     16.03008745
_cell_angle_alpha  101.628986
_cell_angle_beta  112.665588
_cell_angle_gamma   85.881475

loop_
_atom_site_label
_atom_site_fract_x
_atom_site_fract_y
_atom_site_fract_z
C1  1.247795222663E-01  4.092157797416E-02  4.091856811279E-01
C2 -1.247795222663E-01 -4.092157797416E-02 -4.091856811279E-01
C3 -2.432469990949E-02 -2.690043541835E-01  2.814204193755E-01
C4  2.432469990949E-02  2.690043541835E-01 -2.814204193755E-01
C5  3.598295004560E-02 -1.776668415549E-01  3.740037201592E-01
C6 -3.598295004560E-02  1.776668415549E-01 -3.740037201592E-01
C7  1.504351443015E-01  1.614673778323E-01  3.506599859103E-01
C8 -1.504351443015E-01 -1.614673778323E-01 -3.506599859103E-01
C9  9.156980944346E-02  7.111738194492E-02  2.529662067178E-01
C10 -9.156980944346E-02 -7.111738194492E-02 -2.529662067178E-01
C11  1.194501886510E-01  1.884282299870E-01  1.923735314066E-01
C12 -1.194501886510E-01 -1.884282299870E-01 -1.923735314066E-01
C13  6.079988582754E-02  9.763320096104E-02  9.622932751070E-02
C14 -6.079988582754E-02 -9.763320096104E-02 -9.622932751070E-02
C15  8.861959555253E-02  2.145637300752E-01  3.457176143004E-02
C16 -8.861959555253E-02 -2.145637300752E-01 -3.457176143004E-02
C17 -3.002650424134E-02 -1.233931277021E-01  6.064620928671E-02
C18  3.002650424134E-02  1.233931277021E-01 -6.064620928671E-02
C19 -5.713267796912E-02 -2.408490954848E-01  1.232337049353E-01
C20  5.713267796912E-02  2.408490954848E-01 -1.232337049353E-01
C21  1.723101348931E-03 -1.499652540411E-01  2.174912678822E-01
C22 -1.723101348931E-03  1.499652540411E-01 -2.174912678822E-01
H23  1.716598332574E-01  1.118792619281E-01  4.841575087874E-01
H24 -1.716598332574E-01 -1.118792619281E-01 -4.841575087874E-01
H25 -9.369746911766E-02 -4.362326264259E-01  2.542066186379E-01
H26  9.369746911766E-02  4.362326264259E-01 -2.542066186379E-01
H27  1.526267448248E-02 -2.718771847824E-01  4.221805195271E-01
H28 -1.526267448248E-02  2.718771847824E-01 -4.221805195271E-01
H29  2.160932747856E-01  3.312314659178E-01  3.768200533746E-01
H30 -2.160932747856E-01 -3.312314659178E-01 -3.768200533746E-01
H31  1.891444859549E-01  3.558188380870E-01  2.194520678453E-01
H32 -1.891444859549E-01 -3.558188380870E-01 -2.194520678453E-01
H33  1.578096755180E-01  3.822366420860E-01  6.156189831878E-02
H34 -1.578096755180E-01 -3.822366420860E-01 -6.156189831878E-02
H35 -1.259786591443E-01 -4.087078354532E-01  9.619695450956E-02
H36  1.259786591443E-01  4.087078354532E-01 -9.619695450956E-02
C37 -4.523806982354E-01 -4.295717132645E-01  3.992515790152E-01
C38  4.523806982354E-01  4.295717132645E-01 -3.992515790152E-01
C39  4.904220244127E-01 -3.148519622869E-01  3.272140761678E-01
C40 -4.904220244127E-01  3.148519622869E-01 -3.272140761678E-01
C41 -4.906851116512E-01 -4.138560924842E-01  2.412430677915E-01
C42  4.906851116512E-01  4.138560924842E-01 -2.412430677915E-01
C43  4.537734780620E-01 -2.998238767155E-01  1.672718113821E-01
C44 -4.537734780620E-01  2.998238767155E-01 -1.672718113821E-01
C45  4.753860617474E-01 -3.968487580281E-01  8.323955186097E-02
C46 -4.753860617474E-01  3.968487580281E-01 -8.323955186097E-02
C47  4.215707989867E-01 -2.815231778807E-01  8.648174203102E-03
C48 -4.215707989867E-01  2.815231778807E-01 -8.648174203102E-03
C49 -4.442688760623E-01  3.781133070400E-01  7.430329041031E-02
C50  4.442688760623E-01 -3.781133070400E-01 -7.430329041031E-02
C51 -3.893276814511E-01  2.634116592030E-01  1.500768411206E-01
C52  3.893276814511E-01 -2.634116592030E-01 -1.500768411206E-01
C53 -4.103422270939E-01  3.614505714195E-01  2.324172987467E-01
C54  4.103422270939E-01 -3.614505714195E-01 -2.324172987467E-01
C55 -3.520175888737E-01  2.479255412919E-01  3.102026641269E-01
C56  3.520175888737E-01 -2.479255412919E-01 -3.102026641269E-01
C57 -3.725274348230E-01  3.488254773218E-01  3.906888012213E-01
C58  3.725274348230E-01 -3.488254773218E-01 -3.906888012213E-01
H59 -4.668178795115E-01 -3.505731022007E-01  4.650420780990E-01
H60  4.668178795115E-01  3.505731022007E-01 -4.650420780990E-01
H61  4.295473060331E-01 -1.441565388547E-01  3.341435393938E-01
H62 -4.295473060331E-01  1.441565388547E-01 -3.341435393938E-01
H63  3.926073060324E-01 -1.290870065869E-01  1.741211911221E-01
H64 -3.926073060324E-01  1.290870065869E-01 -1.741211911221E-01
H65  3.601001236851E-01 -1.109519447617E-01  1.548113854453E-02
H66 -3.601001236851E-01  1.109519447617E-01 -1.548113854453E-02
H67 -3.273913415590E-01  9.306370265490E-02  1.433840762229E-01
H68  3.273913415590E-01 -9.306370265490E-02 -1.433840762229E-01
H69 -2.892921310351E-01  7.822112979446E-02  3.037461273091E-01
H70  2.892921310351E-01 -7.822112979446E-02 -3.037461273091E-01
H71 -3.267662848842E-01  2.605604320220E-01  4.501490346314E-01
H72  3.267662848842E-01 -2.605604320220E-01 -4.501490346314E-01


#===END

data_OPT_STEP_40

_symmetry_space_group_name_H-M 'P 1'
_cell_length_a      7.94197385
_cell_length_b      6.05158378
_cell_length_c     16.02938312
_cell_angle_alpha  101.636198
_cell_angle_beta  112.658125
_cell_angle_gamma   85.870558

loop_
_atom_site_label
_atom_site_fract_x
_atom_site_fract_y
_atom_site_fract_z
C1  1.247357460729E-01  4.109786865687E-02  4.092157322645E-01
C2 -1.247357460729E-01 -4.109786865687E-02 -4.092157322645E-01
C3 -2.420538374458E-02 -2.689370191771E-01  2.814651619005E-01
C4  2.420538374458E-02  2.689370191771E-01 -2.814651619005E-01
C5  3.600781977060E-02 -1.775313760778E-01  3.740425642280E-01
C6 -3.600781977060E-02  1.775313760778E-01 -3.740425642280E-01
C7  1.503988097489E-01  1.616216126663E-01  3.506850298179E-01
C8 -1.503988097489E-01 -1.616216126663E-01 -3.506850298179E-01
C9  9.166931557149E-02  7.115996608232E-02  2.529929183003E-01
C10 -9.166931557149E-02 -7.115996608232E-02 -2.529929183003E-01
C11  1.195792825383E-01  1.884042154439E-01  1.923904562147E-01
C12 -1.195792825383E-01 -1.884042154439E-01 -1.923904562147E-01
C13  6.091248144788E-02  9.758661107974E-02  9.624486264609E-02
C14 -6.091248144788E-02 -9.758661107974E-02 -9.624486264609E-02
C15  8.861246330249E-02  2.145417606193E-01  3.455424087283E-02
C16 -8.861246330249E-02 -2.145417606193E-01 -3.455424087283E-02
C17 -2.987986896650E-02 -1.234515548828E-01  6.066722390560E-02
C18  2.987986896650E-02  1.234515548828E-01 -6.066722390560E-02
C19 -5.695469502378E-02 -2.408778773290E-01  1.232738593011E-01
C20  5.695469502378E-02  2.408778773290E-01 -1.232738593011E-01
C21  1.862984417743E-03 -1.499416278864E-01  2.175291839750E-01
C22 -1.862984417743E-03  1.499416278864E-01 -2.175291839750E-01
H23  1.716058982326E-01  1.120673549888E-01  4.841877529066E-01
H24 -1.716058982326E-01 -1.120673549888E-01 -4.841877529066E-01
H25 -9.346728947275E-02 -4.362235111680E-01  2.542646632160E-01
H26  9.346728947275E-02  4.362235111680E-01 -2.542646632160E-01
H27  1.517164950760E-02 -2.716555038397E-01  4.222151651015E-01
H28 -1.517164950760E-02  2.716555038396E-01 -4.222151651015E-01
H29  2.160451116365E-01  3.313960027061E-01  3.768567441551E-01
H30 -2.160451116365E-01 -3.313960027061E-01 -3.768567441551E-01
H31  1.892854015039E-01  3.557717564320E-01  2.194580713807E-01
H32 -1.892854015039E-01 -3.557717564320E-01 -2.194580713807E-01
H33  1.579102032388E-01  3.821234818229E-01  6.154113122350E-02
H34 -1.579102032388E-01 -3.821234818229E-01 -6.154113122350E-02
H35 -1.257614572027E-01 -4.087495137647E-01  9.624806548047E-02
H36  1.257614572027E-01  4.087495137647E-01 -9.624806548047E-02
C37 -4.522888353981E-01 -4.294907975101E-01  3.992777549268E-01
C38  4.522888353981E-01  4.294907975101E-01 -3.992777549268E-01
C39  4.907406824917E-01 -3.146271123029E-01  3.272841449853E-01
C40 -4.907406824917E-01  3.146271123029E-01 -3.272841449853E-01
C41 -4.904192982903E-01 -4.136885805512E-01  2.413000004383E-01
C42  4.904192982903E-01  4.136885805512E-01 -2.413000004383E-01
C43  4.540302845153E-01 -2.996501882100E-01  1.673333326418E-01
C44 -4.540302845153E-01  2.996501882100E-01 -1.673333326418E-01
C45  4.755746683791E-01 -3.967309021673E-01  8.327960909690E-02
C46 -4.755746683791E-01  3.967309021673E-01 -8.327960909690E-02
C47  4.216034422038E-01 -2.814864029976E-01  8.662523664942E-03
C48 -4.216034422038E-01  2.814864029976E-01 -8.662523664942E-03
C49 -4.441539205326E-01  3.781731784227E-01  7.432163241769E-02
C50  4.441539205326E-01 -3.781731784227E-01 -7.432163241769E-02
C51 -3.891823979372E-01  2.634833818410E-01  1.501033475121E-01
C52  3.891823979372E-01 -2.634833818410E-01 -1.501033475121E-01
C53 -4.100894009792E-01  3.615875679383E-01  2.324616210096E-01
C54  4.100894009792E-01 -3.615875679383E-01 -2.324616210096E-01
C55 -3.517119217742E-01  2.480777788360E-01  3.102552576905E-01
C56  3.517119217742E-01 -2.480777788360E-01 -3.102552576905E-01
C57 -3.723804567057E-01  3.489149032603E-01  3.907164560185E-01
C58  3.723804567057E-01 -3.489149032603E-01 -3.907164560185E-01
H59 -4.667773067397E-01 -3.504936845197E-01  4.650659408759E-01
H60  4.667773067397E-01  3.504936845197E-01 -4.650659408759E-01
H61  4.300341080952E-01 -1.438273503866E-01  3.342495683287E-01
H62 -4.300341080952E-01  1.438273503866E-01 -3.342495683287E-01
H63  3.927992095545E-01 -1.289252443935E-01  1.741769734527E-01
H64 -3.927992095545E-01  1.289252443935E-01 -1.741769734527E-01
H65  3.600840994300E-01 -1.109248182141E-01  1.549340060171E-02
H66 -3.600840994300E-01  1.109248182141E-01 -1.549340060171E-02
H67 -3.273184325860E-01  9.307169148573E-02  1.433908195957E-01
H68  3.273184325860E-01 -9.307169148573E-02 -1.433908195957E-01
H69 -2.888004847842E-01  7.845831696534E-02  3.038262818814E-01
H70  2.888004847842E-01 -7.845831696534E-02 -3.038262818814E-01
H71 -3.267333164774E-01  2.605693189941E-01  4.501537293601E-01
H72  3.267333164774E-01 -2.605693189941E-01 -4.501537293601E-01


#===END

data_OPT_STEP_41

_symmetry_space_group_name_H-M 'P 1'
_cell_length_a      7.94237584
_cell_length_b      6.05125761
_cell_length_c     16.02959287
_cell_angle_alpha  101.640252
_cell_angle_beta  112.661500
_cell_angle_gamma   85.868109

loop_
_atom_site_label
_atom_site_fract_x
_atom_site_fract_y
_atom_site_fract_z
C1  1.246870319772E-01  4.111889869669E-02  4.092153781193E-01
C2 -1.246870319772E-01 -4.111889869669E-02 -4.092153781193E-01
C3 -2.422141148041E-02 -2.689496442560E-01  2.814543872723E-01
C4  2.422141148041E-02  2.689496442560E-01 -2.814543872723E-01
C5  3.597285897242E-02 -1.775361991433E-01  3.740330583396E-01
C6 -3.597285897242E-02  1.775361991433E-01 -3.740330583396E-01
C7  1.503781077647E-01  1.616402948918E-01  3.506926012302E-01
C8 -1.503781077647E-01 -1.616402948918E-01 -3.506926012302E-01
C9  9.166943401748E-02  7.116615855925E-02  2.529984115485E-01
C10 -9.166943401748E-02 -7.116615855925E-02 -2.529984115485E-01
C11  1.195883052850E-01  1.884099113338E-01  1.924009959086E-01
C12 -1.195883052850E-01 -1.884099113338E-01 -1.924009959086E-01
C13  6.091092710961E-02  9.759346564990E-02  9.625044657909E-02
C14 -6.091092710961E-02 -9.759346564990E-02 -9.625044657909E-02
C15  8.861798366888E-02  2.145446466953E-01  3.456231358031E-02
C16 -8.861798366888E-02 -2.145446466953E-01 -3.456231358031E-02
C17 -2.987092689386E-02 -1.234609004048E-01  6.066407084049E-02
C18  2.987092689386E-02  1.234609004048E-01 -6.066407084049E-02
C19 -5.695089995818E-02 -2.408895536496E-01  1.232668284403E-01
C20  5.695089995818E-02  2.408895536496E-01 -1.232668284403E-01
C21  1.859040887822E-03 -1.499460281338E-01  2.175258105420E-01
C22 -1.859040887822E-03  1.499460281338E-01 -2.175258105420E-01
H23  1.715785586863E-01  1.120732094102E-01  4.841907206174E-01
H24 -1.715785586863E-01 -1.120732094102E-01 -4.841907206174E-01
H25 -9.348177273923E-02 -4.362474421659E-01  2.542463262642E-01
H26  9.348177273923E-02  4.362474421659E-01 -2.542463262642E-01
H27  1.518386372224E-02 -2.717099064870E-01  4.222014701970E-01
H28 -1.518386372224E-02  2.717099064870E-01 -4.222014701970E-01
H29  2.160311185114E-01  3.314242356000E-01  3.768769367350E-01
H30 -2.160311185114E-01 -3.314242356000E-01 -3.768769367350E-01
H31  1.892866984586E-01  3.557944714000E-01  2.194746321857E-01
H32 -1.892866984586E-01 -3.557944714000E-01 -2.194746321857E-01
H33  1.579257691386E-01  3.821307782484E-01  6.155605886355E-02
H34 -1.579257691386E-01 -3.821307782484E-01 -6.155605886355E-02
H35 -1.257513616652E-01 -4.087771189726E-01  9.623434532526E-02
H36  1.257513616652E-01  4.087771189726E-01 -9.623434532526E-02
C37 -4.523069566370E-01 -4.295084627591E-01  3.992707542625E-01
C38  4.523069566370E-01  4.295084627591E-01 -3.992707542625E-01
C39  4.907315439710E-01 -3.146309161127E-01  3.272823733297E-01
C40 -4.907315439710E-01  3.146309161127E-01 -3.272823733297E-01
C41 -4.904288659309E-01 -4.136944708000E-01  2.412989971390E-01
C42  4.904288659309E-01  4.136944708000E-01 -2.412989971390E-01
C43  4.540178115504E-01 -2.996506224944E-01  1.673348875957E-01
C44 -4.540178115504E-01  2.996506224944E-01 -1.673348875957E-01
C45  4.755644392921E-01 -3.967314700219E-01  8.327991587066E-02
C46 -4.755644392921E-01  3.967314700219E-01 -8.327991587066E-02
C47  4.215759927474E-01 -2.814898050440E-01  8.661114212801E-03
C48 -4.215759927474E-01  2.814898050440E-01 -8.661114212801E-03
C49 -4.441477735098E-01  3.781702141439E-01  7.432158579273E-02
C50  4.441477735098E-01 -3.781702141439E-01 -7.432158579273E-02
C51 -3.891916005474E-01  2.634655092424E-01  1.500989523254E-01
C52  3.891916005474E-01 -2.634655092424E-01 -1.500989523254E-01
C53 -4.101281167986E-01  3.615555338343E-01  2.324532472137E-01
C54  4.101281167986E-01 -3.615555338343E-01 -2.324532472137E-01
C55 -3.518123081443E-01  2.480101094616E-01  3.102334163787E-01
C56  3.518123081443E-01 -2.480101094616E-01 -3.102334163787E-01
C57 -3.724392353543E-01  3.488655620730E-01  3.906998842528E-01
C58  3.724392353543E-01 -3.488655620730E-01 -3.906998842528E-01
H59 -4.667686783986E-01 -3.505070626612E-01  4.650589706994E-01
H60  4.667686783986E-01  3.505070626612E-01 -4.650589706994E-01
H61  4.299808698615E-01 -1.438437731952E-01  3.342411301322E-01
H62 -4.299808698615E-01  1.438437731952E-01 -3.342411301322E-01
H63  3.927392670000E-01 -1.289395448383E-01  1.741723173830E-01
H64 -3.927392670000E-01  1.289395448383E-01 -1.741723173830E-01
H65  3.600652092821E-01 -1.109111440780E-01  1.549590915667E-02
H66 -3.600652092821E-01  1.109111440780E-01 -1.549590915667E-02
H67 -3.273761284159E-01  9.301413297280E-02  1.433752059130E-01
H68  3.273761284159E-01 -9.301413297280E-02 -1.433752059130E-01
H69 -2.890022049703E-01  7.832315516067E-02  3.037844339668E-01
H70  2.890022049703E-01 -7.832315516067E-02 -3.037844339668E-01
H71 -3.267688508296E-01  2.605267297318E-01  4.501382151420E-01
H72  3.267688508296E-01 -2.605267297318E-01 -4.501382151420E-01


#===END

data_OPT_STEP_42

_symmetry_space_group_name_H-M 'P 1'
_cell_length_a      7.94365917
_cell_length_b      6.05061479
_cell_length_c     16.02995202
_cell_angle_alpha  101.644907
_cell_angle_beta  112.666384
_cell_angle_gamma   85.872790

loop_
_atom_site_label
_atom_site_fract_x
_atom_site_fract_y
_atom_site_fract_z
C1  1.246647620773E-01  4.107154496767E-02  4.092115069921E-01
C2 -1.246647620773E-01 -4.107154496767E-02 -4.092115069921E-01
C3 -2.430284067966E-02 -2.689797254230E-01  2.814263409069E-01
C4  2.430284067966E-02  2.689797254230E-01 -2.814263409069E-01
C5  3.588240751490E-02 -1.775681836033E-01  3.740080439111E-01
C6 -3.588240751490E-02  1.775681836033E-01 -3.740080439111E-01
C7  1.504422135974E-01  1.615734328496E-01  3.507062575335E-01
C8 -1.504422135974E-01 -1.615734328496E-01 -3.507062575335E-01
C9  9.160071928394E-02  7.120435922396E-02  2.530019114292E-01
C10 -9.160071928394E-02 -7.120435922396E-02 -2.530019114292E-01
C11  1.195140326298E-01  1.884729029250E-01  1.924135182039E-01
C12 -1.195140326298E-01 -1.884729029250E-01 -1.924135182039E-01
C13  6.081628660012E-02  9.766609950615E-02  9.625350703260E-02
C14 -6.081628660012E-02 -9.766609950615E-02 -9.625350703260E-02
C15  8.861239823914E-02  2.145750302796E-01  3.458004040937E-02
C16 -8.861239823914E-02 -2.145750302796E-01 -3.458004040937E-02
C17 -2.993926161825E-02 -1.234302865206E-01  6.065096385465E-02
C18  2.993926161825E-02  1.234302865206E-01 -6.065096385465E-02
C19 -5.704426673371E-02 -2.408694496691E-01  1.232432090116E-01
C20  5.704426673371E-02  2.408694496691E-01 -1.232432090116E-01
C21  1.749295007566E-03 -1.499138257284E-01  2.175084914575E-01
C22 -1.749295007565E-03  1.499138257284E-01 -2.175084914575E-01
H23  1.716166046888E-01  1.119845775954E-01  4.841931305972E-01
H24 -1.716166046888E-01 -1.119845775954E-01 -4.841931305972E-01
H25 -9.358796322868E-02 -4.362893591912E-01  2.542003598764E-01
H26  9.358796322868E-02  4.362893591912E-01 -2.542003598764E-01
H27  1.517364612794E-02 -2.718248487884E-01  4.221703794952E-01
H28 -1.517364612794E-02  2.718248487884E-01 -4.221703794952E-01
H29  2.161519481528E-01  3.313441646154E-01  3.769131239614E-01
H30 -2.161519481528E-01 -3.313441646154E-01 -3.769131239614E-01
H31  1.892690479204E-01  3.558465783836E-01  2.195029846729E-01
H32 -1.892690479204E-01 -3.558465783836E-01 -2.195029846729E-01
H33  1.578560729328E-01  3.822367635853E-01  6.158342557731E-02
H34 -1.578560729328E-01 -3.822367635853E-01 -6.158342557731E-02
H35 -1.258185313257E-01 -4.088043930991E-01  9.619809147701E-02
H36  1.258185313257E-01  4.088043930991E-01 -9.619809147701E-02
C37 -4.522987511118E-01 -4.294681784878E-01  3.992704393678E-01
C38  4.522987511118E-01  4.294681784878E-01 -3.992704393678E-01
C39  4.906569750306E-01 -3.146455055847E-01  3.272695014695E-01
C40 -4.906569750306E-01  3.146455055847E-01 -3.272695014695E-01
C41 -4.905790850710E-01 -4.137557102066E-01  2.412752187502E-01
C42  4.905790850710E-01  4.137557102066E-01 -2.412752187502E-01
C43  4.538929653549E-01 -2.997035268413E-01  1.673157161046E-01
C44 -4.538929653549E-01  2.997035268413E-01 -1.673157161046E-01
C45  4.754577367560E-01 -3.967793226596E-01  8.326331921275E-02
C46 -4.754577367560E-01  3.967793226596E-01 -8.326331921275E-02
C47  4.215759287396E-01 -2.814839642423E-01  8.660894557842E-03
C48 -4.215759287396E-01  2.814839642423E-01 -8.660894557842E-03
C49 -4.442842096059E-01  3.781012249343E-01  7.430054313623E-02
C50  4.442842096059E-01 -3.781012249343E-01 -7.430054313623E-02
C51 -3.893443354241E-01  2.633943416289E-01  1.500769850387E-01
C52  3.893443354241E-01 -2.633943416289E-01 -1.500769850387E-01
C53 -4.102979960564E-01  3.614879589077E-01  2.324280863983E-01
C54  4.102979960564E-01 -3.614879589077E-01 -2.324280863983E-01
C55 -3.519160535244E-01  2.479839091108E-01  3.102229419436E-01
C56  3.519160535244E-01 -2.479839091108E-01 -3.102229419436E-01
C57 -3.724758190259E-01  3.488817450419E-01  3.906944186408E-01
C58  3.724758190259E-01 -3.488817450419E-01 -3.906944186408E-01
H59 -4.667782685215E-01 -3.504817570172E-01  4.650491422478E-01
H60  4.667782685215E-01  3.504817570172E-01 -4.650491422478E-01
H61  4.299570471512E-01 -1.438283196717E-01  3.342306176445E-01
H62 -4.299570471512E-01  1.438283196717E-01 -3.342306176445E-01
H63  3.926378882308E-01 -1.289739464684E-01  1.741555441381E-01
H64 -3.926378882308E-01  1.289739464684E-01 -1.741555441381E-01
H65  3.600367326191E-01 -1.109104790390E-01  1.548960825445E-02
H66 -3.600367326191E-01  1.109104790390E-01 -1.548960825445E-02
H67 -3.275176202976E-01  9.294296782856E-02  1.433562554841E-01
H68  3.275176202976E-01 -9.294296782856E-02 -1.433562554841E-01
H69 -2.891170661256E-01  7.829022121083E-02  3.037742521297E-01
H70  2.891170661256E-01 -7.829022121083E-02 -3.037742521297E-01
H71 -3.267925267798E-01  2.605567956596E-01  4.501329338965E-01
H72  3.267925267798E-01 -2.605567956596E-01 -4.501329338965E-01


#===END

data_OPT_STEP_43

_symmetry_space_group_name_H-M 'P 1'
_cell_length_a      7.94378822
_cell_length_b      6.05062926
_cell_length_c     16.03010269
_cell_angle_alpha  101.646482
_cell_angle_beta  112.671104
_cell_angle_gamma   85.871997

loop_
_atom_site_label
_atom_site_fract_x
_atom_site_fract_y
_atom_site_fract_z
C1  1.246555079877E-01  4.106601531273E-02  4.092123282441E-01
C2 -1.246555079877E-01 -4.106601531273E-02 -4.092123282441E-01
C3 -2.431492504378E-02 -2.689869563795E-01  2.814165763251E-01
C4  2.431492504378E-02  2.689869563795E-01 -2.814165763251E-01
C5  3.587214359998E-02 -1.775772172534E-01  3.740016727042E-01
C6 -3.587214359998E-02  1.775772172534E-01 -3.740016727042E-01
C7  1.504318571122E-01  1.615720670854E-01  3.507107802982E-01
C8 -1.504318571122E-01 -1.615720670854E-01 -3.507107802982E-01
C9  9.159801412431E-02  7.119902442308E-02  2.530038682052E-01
C10 -9.159801412431E-02 -7.119902442308E-02 -2.530038682052E-01
C11  1.195208308611E-01  1.884657530544E-01  1.924201222856E-01
C12 -1.195208308611E-01 -1.884657530544E-01 -1.924201222856E-01
C13  6.082137743356E-02  9.766105031857E-02  9.625697288919E-02
C14 -6.082137743356E-02 -9.766105031857E-02 -9.625697288919E-02
C15  8.861974973916E-02  2.145735150435E-01  3.458800657524E-02
C16 -8.861974973916E-02 -2.145735150435E-01 -3.458800657524E-02
C17 -2.994051211410E-02 -1.234340715115E-01  6.064659666101E-02
C18  2.994051211410E-02  1.234340715115E-01 -6.064659666101E-02
C19 -5.705010714598E-02 -2.408752395005E-01  1.232344393270E-01
C20  5.705010714598E-02  2.408752395005E-01 -1.232344393270E-01
C21  1.740550135259E-03 -1.499184296856E-01  2.175029364175E-01
C22 -1.740550135259E-03  1.499184296856E-01 -2.175029364175E-01
H23  1.716100554190E-01  1.119769231097E-01  4.841965193568E-01
H24 -1.716100554190E-01 -1.119769231097E-01 -4.841965193568E-01
H25 -9.360557396039E-02 -4.362956153734E-01  2.541844068109E-01
H26  9.360557396039E-02  4.362956153734E-01 -2.541844068109E-01
H27  1.516465515116E-02 -2.718366742083E-01  4.221614504440E-01
H28 -1.516465515116E-02  2.718366742083E-01 -4.221614504440E-01
H29  2.161466863640E-01  3.313413864977E-01  3.769229091042E-01
H30 -2.161466863640E-01 -3.313413864977E-01 -3.769229091042E-01
H31  1.892746424037E-01  3.558435666005E-01  2.195152660933E-01
H32 -1.892746424037E-01 -3.558435666005E-01 -2.195152660933E-01
H33  1.578730022357E-01  3.822315142586E-01  6.159780558248E-02
H34 -1.578730022357E-01 -3.822315142586E-01 -6.159780558248E-02
H35 -1.258279781821E-01 -4.088106190684E-01  9.618326959243E-02
H36  1.258279781821E-01  4.088106190684E-01 -9.618326959243E-02
C37 -4.523132160233E-01 -4.294668485817E-01  3.992681935325E-01
C38  4.523132160233E-01  4.294668485817E-01 -3.992681935325E-01
C39  4.906380287874E-01 -3.146491260668E-01  3.272651038599E-01
C40 -4.906380287874E-01  3.146491260668E-01 -3.272651038599E-01
C41 -4.905870368344E-01 -4.137557771625E-01  2.412734665893E-01
C42  4.905870368344E-01  4.137557771625E-01 -2.412734665893E-01
C43  4.538853384840E-01 -2.997048885635E-01  1.673128579860E-01
C44 -4.538853384840E-01  2.997048885635E-01 -1.673128579860E-01
C45  4.754556074903E-01 -3.967791886037E-01  8.326226548098E-02
C46 -4.754556074903E-01  3.967791886037E-01 -8.326226548098E-02
C47  4.215742842155E-01 -2.814842250629E-01  8.659061766135E-03
C48 -4.215742842155E-01  2.814842250629E-01 -8.659061766135E-03
C49 -4.442824984315E-01  3.781025697493E-01  7.430179163671E-02
C50  4.442824984315E-01 -3.781025697493E-01 -7.430179163671E-02
C51 -3.893499048871E-01  2.633926524304E-01  1.500776559635E-01
C52  3.893499048871E-01 -2.633926524304E-01 -1.500776559635E-01
C53 -4.103091538291E-01  3.614848079473E-01  2.324275789557E-01
C54  4.103091538291E-01 -3.614848079473E-01 -2.324275789557E-01
C55 -3.519324882711E-01  2.479804695451E-01  3.102226139632E-01
C56  3.519324882711E-01 -2.479804695451E-01 -3.102226139632E-01
C57 -3.724879377943E-01  3.488832832325E-01  3.906943520708E-01
C58  3.724879377943E-01 -3.488832832325E-01 -3.906943520708E-01
H59 -4.667860651099E-01 -3.504728150873E-01  4.650474443012E-01
H60  4.667860651099E-01  3.504728150873E-01 -4.650474443012E-01
H61  4.299334237073E-01 -1.438339252005E-01  3.342239415320E-01
H62 -4.299334237073E-01  1.438339252005E-01 -3.342239415320E-01
H63  3.926244456520E-01 -1.289779515256E-01  1.741502245706E-01
H64 -3.926244456520E-01  1.289779515256E-01 -1.741502245706E-01
H65  3.600348096647E-01 -1.109104935492E-01  1.548652009951E-02
H66 -3.600348096647E-01  1.109104935492E-01 -1.548652009951E-02
H67 -3.275241352915E-01  9.294019559046E-02  1.433578724568E-01
H68  3.275241352915E-01 -9.294019559046E-02 -1.433578724568E-01
H69 -2.891458624467E-01  7.827906243555E-02  3.037729806039E-01
H70  2.891458624467E-01 -7.827906243555E-02 -3.037729806039E-01
H71 -3.268038822230E-01  2.605599373650E-01  4.501338476133E-01
H72  3.268038822230E-01 -2.605599373650E-01 -4.501338476133E-01


#===END

data_OPT_STEP_44

_symmetry_space_group_name_H-M 'P 1'
_cell_length_a      7.94428399
_cell_length_b      6.05055182
_cell_length_c     16.03031956
_cell_angle_alpha  101.650375
_cell_angle_beta  112.680240
_cell_angle_gamma   85.869472

loop_
_atom_site_label
_atom_site_fract_x
_atom_site_fract_y
_atom_site_fract_z
C1  1.246466722934E-01  4.104830637910E-02  4.092162280038E-01
C2 -1.246466722934E-01 -4.104830637910E-02 -4.092162280038E-01
C3 -2.433422098092E-02 -2.690036378909E-01  2.813958923364E-01
C4  2.433422098092E-02  2.690036378909E-01 -2.813958923364E-01
C5  3.585492874341E-02 -1.775984297734E-01  3.739889105978E-01
C6 -3.585492874340E-02  1.775984297734E-01 -3.739889105978E-01
C7  1.504311808564E-01  1.615592226081E-01  3.507235860114E-01
C8 -1.504311808564E-01 -1.615592226081E-01 -3.507235860114E-01
C9  9.160768730250E-02  7.118252193360E-02  2.530096874257E-01
C10 -9.160768730250E-02 -7.118252193360E-02 -2.530096874257E-01
C11  1.195390019675E-01  1.884537184602E-01  1.924349270887E-01
C12 -1.195390019675E-01 -1.884537184602E-01 -1.924349270887E-01
C13  6.084103002893E-02  9.764785719472E-02  9.626504351855E-02
C14 -6.084103002893E-02 -9.764785719472E-02 -9.626504351855E-02
C15  8.864291643452E-02  2.145668986955E-01  3.460465194154E-02
C16 -8.864291643452E-02 -2.145668986955E-01 -3.460465194154E-02
C17 -2.994236731648E-02 -1.234425121448E-01  6.063714103077E-02
C18  2.994236731648E-02  1.234425121448E-01 -6.063714103077E-02
C19 -5.705734533410E-02 -2.408875544672E-01  1.232167567817E-01
C20  5.705734533410E-02  2.408875544672E-01 -1.232167567817E-01
C21  1.741333539901E-03 -1.499374391731E-01  2.174922731799E-01
C22 -1.741333539901E-03  1.499374391731E-01 -2.174922731799E-01
H23  1.715999444927E-01  1.119578363064E-01  4.842060843466E-01
H24 -1.715999444927E-01 -1.119578363064E-01 -4.842060843466E-01
H25 -9.363077371983E-02 -4.363141652368E-01  2.541504722325E-01
H26  9.363077371983E-02  4.363141652368E-01 -2.541504722325E-01
H27  1.514297339110E-02 -2.718585351176E-01  4.221433926621E-01
H28 -1.514297339110E-02  2.718585351176E-01 -4.221433926621E-01
H29  2.161544694960E-01  3.313303346112E-01  3.769507914280E-01
H30 -2.161544694960E-01 -3.313303346112E-01 -3.769507914280E-01
H31  1.893045099838E-01  3.558297004943E-01  2.195426032514E-01
H32 -1.893045099838E-01 -3.558297004943E-01 -2.195426032514E-01
H33  1.579068575788E-01  3.822238101519E-01  6.162718166420E-02
H34 -1.579068575788E-01 -3.822238101519E-01 -6.162718166420E-02
H35 -1.258555325800E-01 -4.088159249732E-01  9.615239025080E-02
H36  1.258555325800E-01  4.088159249732E-01 -9.615239025080E-02
C37 -4.523392611981E-01 -4.294419869422E-01  3.992664810941E-01
C38  4.523392611981E-01  4.294419869422E-01 -3.992664810941E-01
C39  4.906304900967E-01 -3.146189957770E-01  3.272627668416E-01
C40 -4.906304900967E-01  3.146189957770E-01 -3.272627668416E-01
C41 -4.905776474263E-01 -4.137299892298E-01  2.412745197255E-01
C42  4.905776474263E-01  4.137299892298E-01 -2.412745197255E-01
C43  4.538910580764E-01 -2.996846218638E-01  1.673105634224E-01
C44 -4.538910580764E-01  2.996846218638E-01 -1.673105634224E-01
C45  4.754578871601E-01 -3.967700092897E-01  8.326058667698E-02
C46 -4.754578871601E-01  3.967700092897E-01 -8.326058667698E-02
C47  4.215602361095E-01 -2.814858749656E-01  8.652970559284E-03
C48 -4.215602361095E-01  2.814858749656E-01 -8.652970559284E-03
C49 -4.442603472250E-01  3.781160749325E-01  7.430743954591E-02
C50  4.442603472250E-01 -3.781160749325E-01 -7.430743954591E-02
C51 -3.893287785969E-01  2.634073422485E-01  1.500852997066E-01
C52  3.893287785969E-01 -2.634073422485E-01 -1.500852997066E-01
C53 -4.103002501252E-01  3.615018134999E-01  2.324324705213E-01
C54  4.103002501252E-01 -3.615018134999E-01 -2.324324705213E-01
C55 -3.519574741508E-01  2.479850119595E-01  3.102242880313E-01
C56  3.519574741508E-01 -2.479850119595E-01 -3.102242880313E-01
C57 -3.725192710336E-01  3.488956451631E-01  3.906950102698E-01
C58  3.725192710336E-01 -3.488956451631E-01 -3.906950102698E-01
H59 -4.668105798051E-01 -3.504351309814E-01  4.650464209282E-01
H60  4.668105798051E-01  3.504351309814E-01 -4.650464209282E-01
H61  4.298934614354E-01 -1.438149574638E-01  3.342127025756E-01
H62 -4.298934614354E-01  1.438149574638E-01 -3.342127025756E-01
H63  3.926083077795E-01 -1.289648595166E-01  1.741406207058E-01
H64 -3.926083077795E-01  1.289648595166E-01 -1.741406207058E-01
H65  3.600248882728E-01 -1.109061958403E-01  1.547845230646E-02
H66 -3.600248882728E-01  1.109061958403E-01 -1.547845230646E-02
H67 -3.275168865988E-01  9.294240569331E-02  1.433655058259E-01
H68  3.275168865988E-01 -9.294240569331E-02 -1.433655058259E-01
H69 -2.891972459425E-01  7.826293723813E-02  3.037725598760E-01
H70  2.891972459425E-01 -7.826293723813E-02 -3.037725598760E-01
H71 -3.268389018944E-01  2.605721591202E-01  4.501359822406E-01
H72  3.268389018944E-01 -2.605721591202E-01 -4.501359822406E-01


#===END

data_OPT_STEP_45

_symmetry_space_group_name_H-M 'P 1'
_cell_length_a      7.94424983
_cell_length_b      6.05096151
_cell_length_c     16.03066035
_cell_angle_alpha  101.659395
_cell_angle_beta  112.697420
_cell_angle_gamma   85.863267

loop_
_atom_site_label
_atom_site_fract_x
_atom_site_fract_y
_atom_site_fract_z
C1  1.246209852553E-01  4.103361057536E-02  4.092240133362E-01
C2 -1.246209852553E-01 -4.103361057536E-02 -4.092240133362E-01
C3 -2.439364448103E-02 -2.689897141797E-01  2.813576794342E-01
C4  2.439364448103E-02  2.689897141797E-01 -2.813576794342E-01
C5  3.581965764276E-02 -1.776103346328E-01  3.739661955219E-01
C6 -3.581965764276E-02  1.776103346328E-01 -3.739661955219E-01
C7  1.503921766794E-01  1.615634712679E-01  3.507473374198E-01
C8 -1.503921766794E-01 -1.615634712679E-01 -3.507473374198E-01
C9  9.159406837648E-02  7.117922468173E-02  2.530206583138E-01
C10 -9.159406837648E-02 -7.117922468173E-02 -2.530206583138E-01
C11  1.195579082288E-01  1.884347713669E-01  1.924630867739E-01
C12 -1.195579082288E-01 -1.884347713669E-01 -1.924630867739E-01
C13  6.084772665255E-02  9.763898499151E-02  9.627974928798E-02
C14 -6.084772665255E-02 -9.763898499151E-02 -9.627974928798E-02
C15  8.865567466126E-02  2.145599250271E-01  3.463443589306E-02
C16 -8.865567466126E-02 -2.145599250271E-01 -3.463443589306E-02
C17 -2.995407382559E-02 -1.234392736003E-01  6.062033602238E-02
C18  2.995407382559E-02  1.234392736003E-01 -6.062033602238E-02
C19 -5.709306369957E-02 -2.408747874337E-01  1.231831306344E-01
C20  5.709306369957E-02  2.408747874337E-01 -1.231831306344E-01
C21  1.701815844560E-03 -1.499255918323E-01  2.174715706964E-01
C22 -1.701815844560E-03  1.499255918323E-01 -2.174715706964E-01
H23  1.715744585934E-01  1.119367512524E-01  4.842246108479E-01
H24 -1.715744585934E-01 -1.119367512524E-01 -4.842246108479E-01
H25 -9.371242037994E-02 -4.362862407887E-01  2.540862621298E-01
H26  9.371242037994E-02  4.362862407887E-01 -2.540862621298E-01
H27  1.510662161793E-02 -2.718733345905E-01  4.221097431644E-01
H28 -1.510662161793E-02  2.718733345905E-01 -4.221097431644E-01
H29  2.161312998566E-01  3.313244005117E-01  3.770020240745E-01
H30 -2.161312998566E-01 -3.313244005117E-01 -3.770020240745E-01
H31  1.893129315913E-01  3.558209183941E-01  2.195927677478E-01
H32 -1.893129315913E-01 -3.558209183941E-01 -2.195927677478E-01
H33  1.579673621750E-01  3.821852156223E-01  6.168249314468E-02
H34 -1.579673621750E-01 -3.821852156223E-01 -6.168249314468E-02
H35 -1.258938929507E-01 -4.088018433272E-01  9.609630634887E-02
H36  1.258938929507E-01  4.088018433272E-01 -9.609630634887E-02
C37 -4.523899944329E-01 -4.294405264518E-01  3.992598029946E-01
C38  4.523899944329E-01  4.294405264518E-01 -3.992598029946E-01
C39  4.905994517352E-01 -3.146157538788E-01  3.272572705691E-01
C40 -4.905994517352E-01  3.146157538788E-01 -3.272572705691E-01
C41 -4.906006070538E-01 -4.137317302248E-01  2.412698784257E-01
C42  4.906006070538E-01  4.137317302248E-01 -2.412698784257E-01
C43  4.538627311255E-01 -2.996954139548E-01  1.673044533612E-01
C44 -4.538627311255E-01  2.996954139548E-01 -1.673044533612E-01
C45  4.754453596844E-01 -3.967762995310E-01  8.325761676500E-02
C46 -4.754453596844E-01  3.967762995310E-01 -8.325761676500E-02
C47  4.215562800112E-01 -2.814911397409E-01  8.652184139901E-03
C48 -4.215562800112E-01  2.814911397409E-01 -8.652184139901E-03
C49 -4.442718826753E-01  3.781136054982E-01  7.430474599772E-02
C50  4.442718826753E-01 -3.781136054982E-01 -7.430474599772E-02
C51 -3.893647210158E-01  2.633968825142E-01  1.500785666660E-01
C52  3.893647210158E-01 -2.633968825142E-01 -1.500785666660E-01
C53 -4.103406605436E-01  3.614906202629E-01  2.324254405375E-01
C54  4.103406605436E-01 -3.614906202629E-01 -2.324254405375E-01
C55 -3.520288973617E-01  2.479685696384E-01  3.102140749506E-01
C56  3.520288973617E-01 -2.479685696384E-01 -3.102140749506E-01
C57 -3.725836284926E-01  3.488900805681E-01  3.906869434697E-01
C58  3.725836284926E-01 -3.488900805681E-01 -3.906869434697E-01
H59 -4.668302974263E-01 -3.504063149594E-01  4.650449063669E-01
H60  4.668302974263E-01  3.504063149594E-01 -4.650449063669E-01
H61  4.298618169063E-01 -1.438136025853E-01  3.342057705707E-01
H62 -4.298618169063E-01  1.438136025853E-01 -3.342057705707E-01
H63  3.925793432045E-01 -1.289791500236E-01  1.741336557968E-01
H64 -3.925793432045E-01  1.289791500236E-01 -1.741336557968E-01
H65  3.600248550050E-01 -1.109128489117E-01  1.547874268009E-02
H66 -3.600248550050E-01  1.109128489117E-01 -1.547874268009E-02
H67 -3.275594259156E-01  9.292989598233E-02  1.433572171343E-01
H68  3.275594259156E-01 -9.292989598233E-02 -1.433572171343E-01
H69 -2.892895991687E-01  7.823555022082E-02  3.037593363746E-01
H70  2.892895991687E-01 -7.823555022082E-02 -3.037593363746E-01
H71 -3.268958330054E-01  2.605761409227E-01  4.501306735485E-01
H72  3.268958330054E-01 -2.605761409227E-01 -4.501306735485E-01


#===END

data_OPT_STEP_46

_symmetry_space_group_name_H-M 'P 1'
_cell_length_a      7.94573564
_cell_length_b      6.05074958
_cell_length_c     16.03105251
_cell_angle_alpha  101.668996
_cell_angle_beta  112.713785
_cell_angle_gamma   85.857080

loop_
_atom_site_label
_atom_site_fract_x
_atom_site_fract_y
_atom_site_fract_z
C1  1.245897189947E-01  4.101442254327E-02  4.092333255048E-01
C2 -1.245897189947E-01 -4.101442254327E-02 -4.092333255048E-01
C3 -2.441221353249E-02 -2.690226672673E-01  2.813202017417E-01
C4  2.441221353249E-02  2.690226672673E-01 -2.813202017417E-01
C5  3.577470243861E-02 -1.776321302505E-01  3.739419072640E-01
C6 -3.577470243861E-02  1.776321302505E-01 -3.739419072640E-01
C7  1.503901558104E-01  1.615463951506E-01  3.507771990396E-01
C8 -1.503901558104E-01 -1.615463951506E-01 -3.507771990396E-01
C9  9.161006311828E-02  7.116016033898E-02  2.530356509282E-01
C10 -9.161006311828E-02 -7.116016033898E-02 -2.530356509282E-01
C11  1.195985758117E-01  1.884120525547E-01  1.924958304437E-01
C12 -1.195985758117E-01 -1.884120525547E-01 -1.924958304437E-01
C13  6.089445352353E-02  9.761347247166E-02  9.629839490741E-02
C14 -6.089445352353E-02 -9.761347247166E-02 -9.629839490741E-02
C15  8.870400454195E-02  2.145418944122E-01  3.466654370058E-02
C16 -8.870400454195E-02 -2.145418944122E-01 -3.466654370057E-02
C17 -2.995119478819E-02 -1.234551639983E-01  6.060277587156E-02
C18  2.995119478819E-02  1.234551639983E-01 -6.060277587156E-02
C19 -5.708594458400E-02 -2.409035608153E-01  1.231521145195E-01
C20  5.708594458400E-02  2.409035608152E-01 -1.231521145195E-01
C21  1.707089410371E-03 -1.499530791672E-01  2.174535766590E-01
C22 -1.707089410371E-03  1.499530791672E-01 -2.174535766590E-01
H23  1.715455739192E-01  1.119104448251E-01  4.842448567523E-01
H24 -1.715455739192E-01 -1.119104448251E-01 -4.842448567523E-01
H25 -9.374651582828E-02 -4.363191989569E-01  2.540216034307E-01
H26  9.374651582828E-02  4.363191989569E-01 -2.540216034307E-01
H27  1.503847268048E-02 -2.718791796372E-01  4.220739277330E-01
H28 -1.503847268048E-02  2.718791796372E-01 -4.220739277330E-01
H29  2.161632613599E-01  3.312964097726E-01  3.770702822232E-01
H30 -2.161632613599E-01 -3.312964097726E-01 -3.770702822232E-01
H31  1.893748001415E-01  3.557929930950E-01  2.196502380033E-01
H32 -1.893748001415E-01 -3.557929930950E-01 -2.196502380033E-01
H33  1.580395489832E-01  3.821625281053E-01  6.173899833780E-02
H34 -1.580395489832E-01 -3.821625281053E-01 -6.173899833780E-02
H35 -1.259140380597E-01 -4.088237448149E-01  9.604078717517E-02
H36  1.259140380597E-01  4.088237448149E-01 -9.604078717517E-02
C37 -4.524225918265E-01 -4.293781421735E-01  3.992606332976E-01
C38  4.524225918265E-01  4.293781421735E-01 -3.992606332976E-01
C39  4.905408686447E-01 -3.145773993382E-01  3.272497009866E-01
C40 -4.905408686447E-01  3.145773993382E-01 -3.272497009866E-01
C41 -4.905889761504E-01 -4.136726939160E-01  2.412745952638E-01
C42  4.905889761504E-01  4.136726939160E-01 -2.412745952638E-01
C43  4.539011199247E-01 -2.996299271902E-01  1.673094826836E-01
C44 -4.539011199247E-01  2.996299271902E-01 -1.673094826836E-01
C45  4.754942871100E-01 -3.967270486280E-01  8.326485527519E-02
C46 -4.754942871100E-01  3.967270486280E-01 -8.326485527519E-02
C47  4.215660741245E-01 -2.814739198185E-01  8.648987649392E-03
C48 -4.215660741245E-01  2.814739198185E-01 -8.648987649392E-03
C49 -4.442180536683E-01  3.781525403818E-01  7.431791490429E-02
C50  4.442180536683E-01 -3.781525403818E-01 -7.431791490429E-02
C51 -3.893114120942E-01  2.634428022780E-01  1.500954923638E-01
C52  3.893114120942E-01 -2.634428022780E-01 -1.500954923638E-01
C53 -4.103191536896E-01  3.615423936725E-01  2.324357517853E-01
C54  4.103191536896E-01 -3.615423936725E-01 -2.324357517853E-01
C55 -3.520358300884E-01  2.480128728007E-01  3.102234795478E-01
C56  3.520358300884E-01 -2.480128728007E-01 -3.102234795478E-01
C57 -3.726014837875E-01  3.489499422070E-01  3.906932160820E-01
C58  3.726014837875E-01 -3.489499422070E-01 -3.906932160820E-01
H59 -4.668656900258E-01 -3.503291069467E-01  4.650471811480E-01
H60  4.668656900258E-01  3.503291069467E-01 -4.650471811480E-01
H61  4.297801084577E-01 -1.437760408281E-01  3.341904716055E-01
H62 -4.297801084577E-01  1.437760408281E-01 -3.341904716055E-01
H63  3.925981410868E-01 -1.289131295814E-01  1.741298469296E-01
H64 -3.925981410868E-01  1.289131295814E-01 -1.741298469296E-01
H65  3.600444153960E-01 -1.108807645173E-01  1.547294534323E-02
H66 -3.600444153960E-01  1.108807645173E-01 -1.547294534323E-02
H67 -3.274947576491E-01  9.297362080000E-02  1.433790039462E-01
H68  3.274947576491E-01 -9.297362080000E-02 -1.433790039462E-01
H69 -2.893400563388E-01  7.824497813577E-02  3.037636046747E-01
H70  2.893400563388E-01 -7.824497813577E-02 -3.037636046747E-01
H71 -3.269310583978E-01  2.606297197643E-01  4.501350951410E-01
H72  3.269310583978E-01 -2.606297197643E-01 -4.501350951410E-01


#===END

data_OPT_STEP_47

_symmetry_space_group_name_H-M 'P 1'
_cell_length_a      7.94857003
_cell_length_b      6.05027736
_cell_length_c     16.03212367
_cell_angle_alpha  101.677663
_cell_angle_beta  112.752206
_cell_angle_gamma   85.848922

loop_
_atom_site_label
_atom_site_fract_x
_atom_site_fract_y
_atom_site_fract_z
C1  1.245308379642E-01  4.094595158484E-02  4.092437423900E-01
C2 -1.245308379642E-01 -4.094595158484E-02 -4.092437423900E-01
C3 -2.453740933802E-02 -2.690697100042E-01  2.812506076335E-01
C4  2.453740933802E-02  2.690697100042E-01 -2.812506076335E-01
C5  3.568081455328E-02 -1.777075694087E-01  3.738984330950E-01
C6 -3.568081455328E-02  1.777075694087E-01 -3.738984330950E-01
C7  1.503387089703E-01  1.615050193654E-01  3.508142024455E-01
C8 -1.503387089703E-01 -1.615050193654E-01 -3.508142024455E-01
C9  9.155997304369E-02  7.112810181309E-02  2.530503764637E-01
C10 -9.155997304369E-02 -7.112810181309E-02 -2.530503764637E-01
C11  1.195853035212E-01  1.883945956187E-01  1.925416291855E-01
C12 -1.195853035212E-01 -1.883945956187E-01 -1.925416291855E-01
C13  6.088523854299E-02  9.760618604221E-02  9.632081180129E-02
C14 -6.088523854299E-02 -9.760618604221E-02 -9.632081180129E-02
C15  8.874272507299E-02  2.145446585369E-01  3.472324221998E-02
C16 -8.874272507299E-02 -2.145446585369E-01 -3.472324221998E-02
C17 -3.000003441959E-02 -1.234622305858E-01  6.057063721657E-02
C18  3.000003441959E-02  1.234622305858E-01 -6.057063721657E-02
C19 -5.718871240819E-02 -2.409166994157E-01  1.230871790941E-01
C20  5.718871240819E-02  2.409166994157E-01 -1.230871790941E-01
C21  1.615541967130E-03 -1.499853214814E-01  2.174137061143E-01
C22 -1.615541967130E-03  1.499853214814E-01 -2.174137061143E-01
H23  1.715046521817E-01  1.118280215649E-01  4.842751135092E-01
H24 -1.715046521817E-01 -1.118280215649E-01 -4.842751135092E-01
H25 -9.392265064704E-02 -4.363538805241E-01  2.539076632149E-01
H26  9.392265064704E-02  4.363538805241E-01 -2.539076632149E-01
H27  1.494049280195E-02 -2.719712625665E-01  4.220108826054E-01
H28 -1.494049280195E-02  2.719712625665E-01 -4.220108826054E-01
H29  2.161335309768E-01  3.312633681352E-01  3.771473792209E-01
H30 -2.161335309768E-01 -3.312633681352E-01 -3.771473792209E-01
H31  1.893749656677E-01  3.557886893041E-01  2.197393999407E-01
H32 -1.893749656677E-01 -3.557886893041E-01 -2.197393999407E-01
H33  1.581108004042E-01  3.821645233416E-01  6.183916820584E-02
H34 -1.581108004042E-01 -3.821645233416E-01 -6.183916820584E-02
H35 -1.260685220388E-01 -4.088253063215E-01  9.593068194427E-02
H36  1.260685220388E-01  4.088253063215E-01 -9.593068194427E-02
C37 -4.525365168354E-01 -4.292950966915E-01  3.992501239423E-01
C38  4.525365168354E-01  4.292950966915E-01 -3.992501239423E-01
C39  4.904750141560E-01 -3.144837053801E-01  3.272296460201E-01
C40 -4.904750141560E-01  3.144837053801E-01 -3.272296460201E-01
C41 -4.906478877688E-01 -4.136126446423E-01  2.412638328692E-01
C42  4.906478877688E-01  4.136126446423E-01 -2.412638328692E-01
C43  4.538441328765E-01 -2.995861541346E-01  1.672803760529E-01
C44 -4.538441328765E-01  2.995861541346E-01 -1.672803760529E-01
C45  4.754459670957E-01 -3.967160596180E-01  8.324650310101E-02
C46 -4.754459670957E-01  3.967160596180E-01 -8.324650310101E-02
C47  4.215511349625E-01 -2.814613350573E-01  8.618664731669E-03
C48 -4.215511349625E-01  2.814613350573E-01 -8.618664731669E-03
C49 -4.442455492530E-01  3.781539459848E-01  7.433188160264E-02
C50  4.442455492530E-01 -3.781539459848E-01 -7.433188160264E-02
C51 -3.893554729778E-01  2.634534981297E-01  1.501228824229E-01
C52  3.893554729778E-01 -2.634534981297E-01 -1.501228824229E-01
C53 -4.103814097001E-01  3.615783421594E-01  2.324524947942E-01
C54  4.103814097001E-01 -3.615783421594E-01 -2.324524947942E-01
C55 -3.521157065606E-01  2.480596810838E-01  3.102540274754E-01
C56  3.521157065606E-01 -2.480596810838E-01 -3.102540274754E-01
C57 -3.727080773967E-01  3.490176752595E-01  3.907113467764E-01
C58  3.727080773967E-01 -3.490176752595E-01 -3.907113467764E-01
H59 -4.669620191494E-01 -3.502084778116E-01  4.650333162392E-01
H60  4.669620191494E-01  3.502084778116E-01 -4.650333162392E-01
H61  4.297285505147E-01 -1.436610112495E-01  3.341521606520E-01
H62 -4.297285505147E-01  1.436610112495E-01 -3.341521606520E-01
H63  3.925295613341E-01 -1.288599370691E-01  1.740762887318E-01
H64 -3.925295613341E-01  1.288599370691E-01 -1.740762887318E-01
H65  3.600302599267E-01 -1.108515405151E-01  1.542043963587E-02
H66 -3.600302599267E-01  1.108515405151E-01 -1.542043963587E-02
H67 -3.275538786598E-01  9.296044111543E-02  1.434247367518E-01
H68  3.275538786598E-01 -9.296044111543E-02 -1.434247367518E-01
H69 -2.894119983492E-01  7.828137767124E-02  3.038167296283E-01
H70  2.894119983492E-01 -7.828137767124E-02 -3.038167296283E-01
H71 -3.270380456371E-01  2.607091989409E-01  4.501661405119E-01
H72  3.270380456371E-01 -2.607091989409E-01 -4.501661405119E-01


#===END

data_OPT_STEP_48

_symmetry_space_group_name_H-M 'P 1'
_cell_length_a      7.94717735
_cell_length_b      6.05208283
_cell_length_c     16.03201238
_cell_angle_alpha  101.690009
_cell_angle_beta  112.778703
_cell_angle_gamma   85.842355

loop_
_atom_site_label
_atom_site_fract_x
_atom_site_fract_y
_atom_site_fract_z
C1  1.244815837808E-01  4.090739740324E-02  4.092660425180E-01
C2 -1.244815837808E-01 -4.090739740324E-02 -4.092660425180E-01
C3 -2.466873286030E-02 -2.689977551786E-01  2.811995874403E-01
C4  2.466873286030E-02  2.689977551786E-01 -2.811995874403E-01
C5  3.557729627153E-02 -1.776843467607E-01  3.738719788298E-01
C6 -3.557729627153E-02  1.776843467607E-01 -3.738719788298E-01
C7  1.503195421747E-01  1.614459915494E-01  3.508607768719E-01
C8 -1.503195421747E-01 -1.614459915494E-01 -3.508607768719E-01
C9  9.152170586818E-02  7.111436267039E-02  2.530746678116E-01
C10 -9.152170586818E-02 -7.111436267039E-02 -2.530746678116E-01
C11  1.195807818051E-01  1.883555657611E-01  1.925892650419E-01
C12 -1.195807818051E-01 -1.883555657611E-01 -1.925892650419E-01
C13  6.087104324243E-02  9.759197188809E-02  9.634587383190E-02
C14 -6.087104324243E-02 -9.759197188809E-02 -9.634587383190E-02
C15  8.878382173364E-02  2.144880423378E-01  3.477150792370E-02
C16 -8.878382173364E-02 -2.144880423378E-01 -3.477150792370E-02
C17 -3.004519773022E-02 -1.234231919897E-01  6.054490635848E-02
C18  3.004519773022E-02  1.234231919897E-01 -6.054490635848E-02
C19 -5.727854411628E-02 -2.408476944497E-01  1.230376054758E-01
C20  5.727854411628E-02  2.408476944497E-01 -1.230376054758E-01
C21  1.525946028279E-03 -1.499369172876E-01  2.173874908953E-01
C22 -1.525946028278E-03  1.499369172876E-01 -2.173874908953E-01
H23  1.714650160557E-01  1.117617633333E-01  4.843151023990E-01
H24 -1.714650160557E-01 -1.117617633333E-01 -4.843151023990E-01
H25 -9.399525546569E-02 -4.362967473489E-01  2.538223743835E-01
H26  9.399525546569E-02  4.362967473489E-01 -2.538223743835E-01
H27  1.479611225680E-02 -2.719372090780E-01  4.219609117358E-01
H28 -1.479611225680E-02  2.719372090780E-01 -4.219609117358E-01
H29  2.161676033375E-01  3.311346713849E-01  3.772298259811E-01
H30 -2.161676033375E-01 -3.311346713849E-01 -3.772298259811E-01
H31  1.894491348725E-01  3.556760016158E-01  2.198253904467E-01
H32 -1.894491348725E-01 -3.556760016158E-01 -2.198253904467E-01
H33  1.581378020996E-01  3.820964907301E-01  6.192092464415E-02
H34 -1.581378020996E-01 -3.820964907301E-01 -6.192092464415E-02
H35 -1.261517879758E-01 -4.087384070340E-01  9.584437242542E-02
H36  1.261517879758E-01  4.087384070340E-01 -9.584437242542E-02
C37 -4.525440710465E-01 -4.292309468378E-01  3.992652726655E-01
C38  4.525440710465E-01  4.292309468378E-01 -3.992652726655E-01
C39  4.904833109132E-01 -3.144523032091E-01  3.272402641322E-01
C40 -4.904833109132E-01  3.144523032091E-01 -3.272402641322E-01
C41 -4.906708928800E-01 -4.136042406939E-01  2.412677362992E-01
C42  4.906708928800E-01  4.136042406939E-01 -2.412677362992E-01
C43  4.538090705640E-01 -2.996228309322E-01  1.672777285353E-01
C44 -4.538090705640E-01  2.996228309322E-01 -1.672777285353E-01
C45  4.754109926654E-01 -3.967483769788E-01  8.324162158567E-02
C46 -4.754109926654E-01  3.967483769788E-01 -8.324162158567E-02
C47  4.215707697741E-01 -2.814950012628E-01  8.619285711554E-03
C48 -4.215707697741E-01  2.814950012628E-01 -8.619285711554E-03
C49 -4.442936508225E-01  3.781626248063E-01  7.432818319072E-02
C50  4.442936508225E-01 -3.781626248063E-01 -7.432818319072E-02
C51 -3.894672356244E-01  2.634637701566E-01  1.501146640114E-01
C52  3.894672356244E-01 -2.634637701565E-01 -1.501146640114E-01
C53 -4.104458537442E-01  3.616047158883E-01  2.324532079538E-01
C54  4.104458537442E-01 -3.616047158883E-01 -2.324532079538E-01
C55 -3.521956241898E-01  2.481245758329E-01  3.102620021618E-01
C56  3.521956241898E-01 -2.481245758329E-01 -3.102620021618E-01
C57 -3.727375634434E-01  3.491100950903E-01  3.907279449389E-01
C58  3.727375634434E-01 -3.491100950903E-01 -3.907279449389E-01
H59 -4.669862489456E-01 -3.501319511791E-01  4.650456503610E-01
H60  4.669862489456E-01  3.501319511791E-01 -4.650456503610E-01
H61  4.296606317667E-01 -1.437011450078E-01  3.341428098317E-01
H62 -4.296606317667E-01  1.437011450078E-01 -3.341428098317E-01
H63  3.924854257069E-01 -1.289345010787E-01  1.740674547656E-01
H64 -3.924854257069E-01  1.289345010787E-01 -1.740674547656E-01
H65  3.600323544410E-01 -1.109303957726E-01  1.541648252062E-02
H66 -3.600323544410E-01  1.109303957726E-01 -1.541648252062E-02
H67 -3.277046986490E-01  9.298138410283E-02  1.434105480266E-01
H68  3.277046986490E-01 -9.298138410283E-02 -1.434105480266E-01
H69 -2.895310571302E-01  7.835686242853E-02  3.038201159866E-01
H70  2.895310571302E-01 -7.835686242853E-02 -3.038201159866E-01
H71 -3.270704352619E-01  2.608288622325E-01  4.501885962303E-01
H72  3.270704352619E-01 -2.608288622325E-01 -4.501885962303E-01


#===END

data_OPT_STEP_49

_symmetry_space_group_name_H-M 'P 1'
_cell_length_a      7.94827691
_cell_length_b      6.05066458
_cell_length_c     16.03184288
_cell_angle_alpha  101.680942
_cell_angle_beta  112.757791
_cell_angle_gamma   85.848007

loop_
_atom_site_label
_atom_site_fract_x
_atom_site_fract_y
_atom_site_fract_z
C1  1.245212159480E-01  4.093826279868E-02  4.092537253538E-01
C2 -1.245212159480E-01 -4.093826279868E-02 -4.092537253538E-01
C3 -2.459597465414E-02 -2.690328755740E-01  2.812400457712E-01
C4  2.459597465414E-02  2.690328755740E-01 -2.812400457712E-01
C5  3.563993044929E-02 -1.776912809059E-01  3.738950742304E-01
C6 -3.563993044929E-02  1.776912809059E-01 -3.738950742304E-01
C7  1.503456968450E-01  1.614902465088E-01  3.508306520728E-01
C8 -1.503456968450E-01 -1.614902465088E-01 -3.508306520728E-01
C9  9.154787164283E-02  7.113543695854E-02  2.530598217022E-01
C10 -9.154787164283E-02 -7.113543695854E-02 -2.530598217022E-01
C11  1.195854677734E-01  1.883926227934E-01  1.925558002241E-01
C12 -1.195854677734E-01 -1.883926227934E-01 -1.925558002241E-01
C13  6.087257816698E-02  9.761279847757E-02  9.632820122196E-02
C14 -6.087257816698E-02 -9.761279847757E-02 -9.632820122196E-02
C15  8.875623509623E-02  2.145305315150E-01  3.473502081722E-02
C16 -8.875623509623E-02 -2.145305315150E-01 -3.473502081722E-02
C17 -3.002007119023E-02 -1.234442175457E-01  6.056478306005E-02
C18  3.002007119023E-02  1.234442175457E-01 -6.056478306005E-02
C19 -5.722727969627E-02 -2.408872147932E-01  1.230759363182E-01
C20  5.722727969627E-02  2.408872147932E-01 -1.230759363182E-01
C21  1.573737189414E-03 -1.499553661769E-01  2.174089348865E-01
C22 -1.573737189413E-03  1.499553661769E-01 -2.174089348865E-01
H23  1.714967614093E-01  1.118146556813E-01  4.842898222007E-01
H24 -1.714967614093E-01 -1.118146556813E-01 -4.842898222007E-01
H25 -9.394458781251E-02 -4.363368847383E-01  2.538893563942E-01
H26  9.394458781251E-02  4.363368847383E-01 -2.538893563942E-01
H27  1.487495698173E-02 -2.719532333584E-01  4.219991523135E-01
H28 -1.487495698173E-02  2.719532333584E-01 -4.219991523135E-01
H29  2.161708461183E-01  3.312193215802E-01  3.771743410896E-01
H30 -2.161708461183E-01 -3.312193215802E-01 -3.771743410896E-01
H31  1.894190885265E-01  3.557544913169E-01  2.197636228080E-01
H32 -1.894190885265E-01 -3.557544913169E-01 -2.197636228080E-01
H33  1.581149948898E-01  3.821539986858E-01  6.185829903620E-02
H34 -1.581149948898E-01 -3.821539986858E-01 -6.185829903620E-02
H35 -1.260917693970E-01 -4.088020964362E-01  9.591091166893E-02
H36  1.260917693970E-01  4.088020964362E-01 -9.591091166893E-02
C37 -4.525283061378E-01 -4.292655050266E-01  3.992590632778E-01
C38  4.525283061378E-01  4.292655050266E-01 -3.992590632778E-01
C39  4.904897360235E-01 -3.144623012672E-01  3.272370380874E-01
C40 -4.904897360235E-01  3.144623012672E-01 -3.272370380874E-01
C41 -4.906587116435E-01 -4.136113564012E-01  2.412655833840E-01
C42  4.906587116435E-01  4.136113564012E-01 -2.412655833840E-01
C43  4.538271046521E-01 -2.995991715286E-01  1.672797858154E-01
C44 -4.538271046521E-01  2.995991715286E-01 -1.672797858154E-01
C45  4.754337934403E-01 -3.967265086701E-01  8.324537190808E-02
C46 -4.754337934403E-01  3.967265086701E-01 -8.324537190808E-02
C47  4.215606027800E-01 -2.814668746678E-01  8.620100592882E-03
C48 -4.215606027800E-01  2.814668746678E-01 -8.620100592882E-03
C49 -4.442687744705E-01  3.781496455309E-01  7.432922004855E-02
C50  4.442687744705E-01 -3.781496455309E-01 -7.432922004855E-02
C51 -3.894000930526E-01  2.634467967014E-01  1.501192936210E-01
C52  3.894000930526E-01 -2.634467967014E-01 -1.501192936210E-01
C53 -4.103995486800E-01  3.615846037156E-01  2.324537050886E-01
C54  4.103995486800E-01 -3.615846037156E-01 -2.324537050886E-01
C55 -3.521313884135E-01  2.480808798114E-01  3.102599618436E-01
C56  3.521313884135E-01 -2.480808798114E-01 -3.102599618436E-01
C57 -3.727074869573E-01  3.490507532556E-01  3.907201562920E-01
C58  3.727074869573E-01 -3.490507532556E-01 -3.907201562920E-01
H59 -4.669751140675E-01 -3.501799871428E-01  4.650390803218E-01
H60  4.669751140675E-01  3.501799871428E-01 -4.650390803218E-01
H61  4.296879989825E-01 -1.436749524877E-01  3.341470271987E-01
H62 -4.296879989825E-01  1.436749524877E-01 -3.341470271987E-01
H63  3.925119142483E-01 -1.288806664695E-01  1.740742772528E-01
H64 -3.925119142483E-01  1.288806664695E-01 -1.740742772528E-01
H65  3.600211860238E-01 -1.108759261095E-01  1.541867789543E-02
H66 -3.600211860238E-01  1.108759261095E-01 -1.541867789543E-02
H67 -3.276050915052E-01  9.295721180034E-02  1.434198373270E-01
H68  3.276050915052E-01 -9.295721180034E-02 -1.434198373270E-01
H69 -2.894354315580E-01  7.830591872329E-02  3.038214115533E-01
H70  2.894354315580E-01 -7.830591872329E-02 -3.038214115533E-01
H71 -3.270408462980E-01  2.607491173181E-01  4.501770203659E-01
H72  3.270408462980E-01 -2.607491173181E-01 -4.501770203659E-01


#===END

data_OPT_STEP_50

_symmetry_space_group_name_H-M 'P 1'
_cell_length_a      7.94829220
_cell_length_b      6.05070449
_cell_length_c     16.03176780
_cell_angle_alpha  101.681595
_cell_angle_beta  112.759337
_cell_angle_gamma   85.847291

loop_
_atom_site_label
_atom_site_fract_x
_atom_site_fract_y
_atom_site_fract_z
C1  1.245187853424E-01  4.093169734828E-02  4.092553948981E-01
C2 -1.245187853424E-01 -4.093169734828E-02 -4.092553948981E-01
C3 -2.459592493441E-02 -2.690349458214E-01  2.812370886261E-01
C4  2.459592493441E-02  2.690349458214E-01 -2.812370886261E-01
C5  3.563109396492E-02 -1.776910254820E-01  3.738933942195E-01
C6 -3.563109396492E-02  1.776910254820E-01 -3.738933942195E-01
C7  1.503522011337E-01  1.614790350769E-01  3.508337831031E-01
C8 -1.503522011337E-01 -1.614790350769E-01 -3.508337831031E-01
C9  9.154760679220E-02  7.113197589885E-02  2.530611870160E-01
C10 -9.154760679220E-02 -7.113197589885E-02 -2.530611870160E-01
C11  1.195862614012E-01  1.883901162481E-01  1.925587054479E-01
C12 -1.195862614012E-01 -1.883901162481E-01 -1.925587054479E-01
C13  6.087428901283E-02  9.761059481364E-02  9.632991511854E-02
C14 -6.087428901283E-02 -9.761059481364E-02 -9.632991511854E-02
C15  8.874966608158E-02  2.145339018507E-01  3.473708526991E-02
C16 -8.874966608158E-02 -2.145339018507E-01 -3.473708526991E-02
C17 -3.001851519588E-02 -1.234451217988E-01  6.056368217418E-02
C18  3.001851519588E-02  1.234451217988E-01 -6.056368217418E-02
C19 -5.722731595307E-02 -2.408861674932E-01  1.230731032434E-01
C20  5.722731595307E-02  2.408861674932E-01 -1.230731032434E-01
C21  1.579092686106E-03 -1.499606080043E-01  2.174074923221E-01
C22 -1.579092686106E-03  1.499606080043E-01 -2.174074923221E-01
H23  1.714958773505E-01  1.118056425063E-01  4.842926867604E-01
H24 -1.714958773505E-01 -1.118056425063E-01 -4.842926867604E-01
H25 -9.395596169335E-02 -4.363303921925E-01  2.538836261654E-01
H26  9.395596169335E-02  4.363303921925E-01 -2.538836261654E-01
H27  1.487213969261E-02 -2.719637198426E-01  4.219954638564E-01
H28 -1.487213969261E-02  2.719637198426E-01 -4.219954638564E-01
H29  2.161666033644E-01  3.312152216200E-01  3.771802643892E-01
H30 -2.161666033644E-01 -3.312152216200E-01 -3.771802643892E-01
H31  1.894167695226E-01  3.557540114422E-01  2.197692838273E-01
H32 -1.894167695226E-01 -3.557540114422E-01 -2.197692838273E-01
H33  1.581223712610E-01  3.821473114797E-01  6.186339753839E-02
H34 -1.581223712610E-01 -3.821473114797E-01 -6.186339753839E-02
H35 -1.260872928068E-01 -4.088022887501E-01  9.590631093459E-02
H36  1.260872928068E-01  4.088022887501E-01 -9.590631093459E-02
C37 -4.525292677094E-01 -4.292740220150E-01  3.992582477919E-01
C38  4.525292677094E-01  4.292740220150E-01 -3.992582477919E-01
C39  4.904872959776E-01 -3.144707423602E-01  3.272357451114E-01
C40 -4.904872959776E-01  3.144707423602E-01 -3.272357451114E-01
C41 -4.906735085752E-01 -4.136258869407E-01  2.412619960951E-01
C42  4.906735085752E-01  4.136258869407E-01 -2.412619960951E-01
C43  4.538270867912E-01 -2.996047558413E-01  1.672793996299E-01
C44 -4.538270867912E-01  2.996047558413E-01 -1.672793996299E-01
C45  4.754341203932E-01 -3.967289537575E-01  8.324533043339E-02
C46 -4.754341203932E-01  3.967289537575E-01 -8.324533043339E-02
C47  4.215599663465E-01 -2.814687650947E-01  8.620624676397E-03
C48 -4.215599663465E-01  2.814687650947E-01 -8.620624676397E-03
C49 -4.442806448241E-01  3.781420587450E-01  7.432611177206E-02
C50  4.442806448241E-01 -3.781420587450E-01 -7.432611177206E-02
C51 -3.894064374525E-01  2.634399804431E-01  1.501170151182E-01
C52  3.894064374525E-01 -2.634399804431E-01 -1.501170151182E-01
C53 -4.104111767347E-01  3.615741116347E-01  2.324506518045E-01
C54  4.104111767347E-01 -3.615741116347E-01 -2.324506518045E-01
C55 -3.521449790699E-01  2.480665487324E-01  3.102565010463E-01
C56  3.521449790699E-01 -2.480665487324E-01 -3.102565010463E-01
C57 -3.727224752389E-01  3.490338142121E-01  3.907170094644E-01
C58  3.727224752389E-01 -3.490338142121E-01 -3.907170094644E-01
H59 -4.669751194550E-01 -3.501902029200E-01  4.650380588113E-01
H60  4.669751194550E-01  3.501902029200E-01 -4.650380588113E-01
H61  4.297213506200E-01 -1.436662644429E-01  3.341518433087E-01
H62 -4.297213506200E-01  1.436662644429E-01 -3.341518433087E-01
H63  3.925290413552E-01 -1.288783628596E-01  1.740778539203E-01
H64 -3.925290413552E-01  1.288783628596E-01 -1.740778539203E-01
H65  3.600283232893E-01 -1.108743650865E-01  1.542119604697E-02
H66 -3.600283232893E-01  1.108743650865E-01 -1.542119604697E-02
H67 -3.275946526067E-01  9.296084099583E-02  1.434205607634E-01
H68  3.275946526067E-01 -9.296084099583E-02 -1.434205607634E-01
H69 -2.894136520930E-01  7.831296134956E-02  3.038239356136E-01
H70  2.894136520930E-01 -7.831296134956E-02 -3.038239356136E-01
H71 -3.270426580589E-01  2.607406124712E-01  4.501770866489E-01
H72  3.270426580589E-01 -2.607406124712E-01 -4.501770866489E-01


#===END

data_OPT_STEP_51

_symmetry_space_group_name_H-M 'P 1'
_cell_length_a      7.94829220
_cell_length_b      6.05070449
_cell_length_c     16.03176780
_cell_angle_alpha  101.681595
_cell_angle_beta  112.759337
_cell_angle_gamma   85.847291

loop_
_atom_site_label
_atom_site_fract_x
_atom_site_fract_y
_atom_site_fract_z
C1  1.245187853424E-01  4.093169734828E-02  4.092553948981E-01
C2 -1.245187853424E-01 -4.093169734828E-02 -4.092553948981E-01
C3 -2.459592493441E-02 -2.690349458214E-01  2.812370886261E-01
C4  2.459592493441E-02  2.690349458214E-01 -2.812370886261E-01
C5  3.563109396492E-02 -1.776910254820E-01  3.738933942195E-01
C6 -3.563109396492E-02  1.776910254820E-01 -3.738933942195E-01
C7  1.503522011337E-01  1.614790350769E-01  3.508337831031E-01
C8 -1.503522011337E-01 -1.614790350769E-01 -3.508337831031E-01
C9  9.154760679220E-02  7.113197589885E-02  2.530611870160E-01
C10 -9.154760679220E-02 -7.113197589885E-02 -2.530611870160E-01
C11  1.195862614012E-01  1.883901162481E-01  1.925587054479E-01
C12 -1.195862614012E-01 -1.883901162481E-01 -1.925587054479E-01
C13  6.087428901283E-02  9.761059481364E-02  9.632991511854E-02
C14 -6.087428901283E-02 -9.761059481364E-02 -9.632991511854E-02
C15  8.874966608158E-02  2.145339018507E-01  3.473708526991E-02
C16 -8.874966608158E-02 -2.145339018507E-01 -3.473708526991E-02
C17 -3.001851519588E-02 -1.234451217988E-01  6.056368217418E-02
C18  3.001851519588E-02  1.234451217988E-01 -6.056368217418E-02
C19 -5.722731595307E-02 -2.408861674932E-01  1.230731032434E-01
C20  5.722731595307E-02  2.408861674932E-01 -1.230731032434E-01
C21  1.579092686106E-03 -1.499606080043E-01  2.174074923221E-01
C22 -1.579092686106E-03  1.499606080043E-01 -2.174074923221E-01
H23  1.714958773505E-01  1.118056425063E-01  4.842926867604E-01
H24 -1.714958773505E-01 -1.118056425063E-01 -4.842926867604E-01
H25 -9.395596169335E-02 -4.363303921925E-01  2.538836261654E-01
H26  9.395596169335E-02  4.363303921925E-01 -2.538836261654E-01
H27  1.487213969261E-02 -2.719637198426E-01  4.219954638564E-01
H28 -1.487213969261E-02  2.719637198426E-01 -4.219954638564E-01
H29  2.161666033644E-01  3.312152216200E-01  3.771802643892E-01
H30 -2.161666033644E-01 -3.312152216200E-01 -3.771802643892E-01
H31  1.894167695226E-01  3.557540114422E-01  2.197692838273E-01
H32 -1.894167695226E-01 -3.557540114422E-01 -2.197692838273E-01
H33  1.581223712610E-01  3.821473114797E-01  6.186339753839E-02
H34 -1.581223712610E-01 -3.821473114797E-01 -6.186339753839E-02
H35 -1.260872928068E-01 -4.088022887501E-01  9.590631093459E-02
H36  1.260872928068E-01  4.088022887501E-01 -9.590631093459E-02
C37 -4.525292677094E-01 -4.292740220150E-01  3.992582477919E-01
C38  4.525292677094E-01  4.292740220150E-01 -3.992582477919E-01
C39  4.904872959776E-01 -3.144707423602E-01  3.272357451114E-01
C40 -4.904872959776E-01  3.144707423602E-01 -3.272357451114E-01
C41 -4.906735085752E-01 -4.136258869407E-01  2.412619960951E-01
C42  4.906735085752E-01  4.136258869407E-01 -2.412619960951E-01
C43  4.538270867912E-01 -2.996047558413E-01  1.672793996299E-01
C44 -4.538270867912E-01  2.996047558413E-01 -1.672793996299E-01
C45  4.754341203932E-01 -3.967289537575E-01  8.324533043339E-02
C46 -4.754341203932E-01  3.967289537575E-01 -8.324533043339E-02
C47  4.215599663465E-01 -2.814687650947E-01  8.620624676397E-03
C48 -4.215599663465E-01  2.814687650947E-01 -8.620624676397E-03
C49 -4.442806448241E-01  3.781420587450E-01  7.432611177206E-02
C50  4.442806448241E-01 -3.781420587450E-01 -7.432611177206E-02
C51 -3.894064374525E-01  2.634399804431E-01  1.501170151182E-01
C52  3.894064374525E-01 -2.634399804431E-01 -1.501170151182E-01
C53 -4.104111767347E-01  3.615741116347E-01  2.324506518045E-01
C54  4.104111767347E-01 -3.615741116347E-01 -2.324506518045E-01
C55 -3.521449790699E-01  2.480665487324E-01  3.102565010463E-01
C56  3.521449790699E-01 -2.480665487324E-01 -3.102565010463E-01
C57 -3.727224752389E-01  3.490338142121E-01  3.907170094644E-01
C58  3.727224752389E-01 -3.490338142121E-01 -3.907170094644E-01
H59 -4.669751194550E-01 -3.501902029200E-01  4.650380588113E-01
H60  4.669751194550E-01  3.501902029200E-01 -4.650380588113E-01
H61  4.297213506200E-01 -1.436662644429E-01  3.341518433087E-01
H62 -4.297213506200E-01  1.436662644429E-01 -3.341518433087E-01
H63  3.925290413552E-01 -1.288783628596E-01  1.740778539203E-01
H64 -3.925290413552E-01  1.288783628596E-01 -1.740778539203E-01
H65  3.600283232893E-01 -1.108743650865E-01  1.542119604697E-02
H66 -3.600283232893E-01  1.108743650865E-01 -1.542119604697E-02
H67 -3.275946526067E-01  9.296084099583E-02  1.434205607634E-01
H68  3.275946526067E-01 -9.296084099583E-02 -1.434205607634E-01
H69 -2.894136520930E-01  7.831296134956E-02  3.038239356136E-01
H70  2.894136520930E-01 -7.831296134956E-02 -3.038239356136E-01
H71 -3.270426580589E-01  2.607406124712E-01  4.501770866489E-01
H72  3.270426580589E-01 -2.607406124712E-01 -4.501770866489E-01


#===END
