###############################################################################
#
#                    CRYSTAL17 CIF FILE
#
###############################################################################

data_OPT_STEP_1

_symmetry_space_group_name_H-M 'P 1'
_cell_length_a      7.90000000
_cell_length_b      6.03000000
_cell_length_c     13.53000000
_cell_angle_alpha  100.300000
_cell_angle_beta  113.200000
_cell_angle_gamma   86.300000

loop_
_atom_site_label
_atom_site_fract_x
_atom_site_fract_y
_atom_site_fract_z
C1  1.194000000000E-01  3.310000000000E-02  3.890000000000E-01
C2 -1.194000000000E-01 -3.310000000000E-02 -3.890000000000E-01
C3  1.494000000000E-01  1.564000000000E-01  3.219000000000E-01
C4 -1.494000000000E-01 -1.564000000000E-01 -3.219000000000E-01
C5  8.110000000000E-02  7.240000000000E-02  2.040000000000E-01
C6 -8.110000000000E-02 -7.240000000000E-02 -2.040000000000E-01
C7  1.094000000000E-01  1.899000000000E-01  1.360000000000E-01
C8 -1.094000000000E-01 -1.899000000000E-01 -1.360000000000E-01
C9  4.670000000000E-02  1.089000000000E-01  2.110000000000E-02
C10 -4.670000000000E-02 -1.089000000000E-01 -2.110000000000E-02
C11  6.910000000000E-02  2.228000000000E-01 -5.160000000000E-02
C12 -6.910000000000E-02 -2.228000000000E-01  5.160000000000E-02
C13 -3.500000000000E-03 -1.405000000000E-01  1.637000000000E-01
C14  3.500000000000E-03  1.405000000000E-01 -1.637000000000E-01
C15 -3.780000000000E-02 -2.646000000000E-01  2.355000000000E-01
C16  3.780000000000E-02  2.646000000000E-01 -2.355000000000E-01
C17  2.670000000000E-02 -1.832000000000E-01  3.483000000000E-01
C18 -2.670000000000E-02  1.832000000000E-01 -3.483000000000E-01
H19  1.680000000000E-01  1.000000000000E-01  4.700000000000E-01
H20 -1.680000000000E-01 -1.000000000000E-01 -4.700000000000E-01
H21  2.120000000000E-01  3.170000000000E-01  3.490000000000E-01
H22 -2.120000000000E-01 -3.170000000000E-01 -3.490000000000E-01
H23  1.760000000000E-01  3.540000000000E-01  1.650000000000E-01
H24 -1.760000000000E-01 -3.540000000000E-01 -1.650000000000E-01
H25  1.340000000000E-01  3.880000000000E-01 -2.200000000000E-02
H26 -1.340000000000E-01 -3.880000000000E-01  2.200000000000E-02
H27 -9.500000000000E-02 -4.250000000000E-01  2.020000000000E-01
H28  9.500000000000E-02  4.250000000000E-01 -2.020000000000E-01
H29  1.100000000000E-02 -2.790000000000E-01  4.000000000000E-01
H30 -1.100000000000E-02  2.790000000000E-01 -4.000000000000E-01
C31 -4.572000000000E-01 -4.320000000000E-01  3.787000000000E-01
C32  4.572000000000E-01  4.320000000000E-01 -3.787000000000E-01
C33  4.799000000000E-01 -3.139000000000E-01  2.930000000000E-01
C34 -4.799000000000E-01  3.139000000000E-01 -2.930000000000E-01
C35  4.997000000000E-01 -4.136000000000E-01  1.947000000000E-01
C36 -4.997000000000E-01  4.136000000000E-01 -1.947000000000E-01
C37  4.425000000000E-01 -2.993000000000E-01  1.048000000000E-01
C38 -4.425000000000E-01  2.993000000000E-01 -1.048000000000E-01
C39  4.638000000000E-01 -3.860000000000E-01  5.200000000000E-03
C40 -4.638000000000E-01  3.860000000000E-01 -5.200000000000E-03
C41  4.052000000000E-01 -2.758000000000E-01 -8.320000000000E-02
C42 -4.052000000000E-01  2.758000000000E-01  8.320000000000E-02
C43 -4.242000000000E-01  3.649000000000E-01  1.811000000000E-01
C44  4.242000000000E-01 -3.649000000000E-01 -1.811000000000E-01
C45 -3.694000000000E-01  2.568000000000E-01  2.685000000000E-01
C46  3.694000000000E-01 -2.568000000000E-01 -2.685000000000E-01
C47 -3.852000000000E-01  3.374000000000E-01  3.645000000000E-01
C48  3.852000000000E-01 -3.374000000000E-01 -3.645000000000E-01
H49 -4.690000000000E-01 -3.500000000000E-01  4.540000000000E-01
H50  4.690000000000E-01  3.500000000000E-01 -4.540000000000E-01
H51  4.250000000000E-01 -1.480000000000E-01  3.050000000000E-01
H52 -4.250000000000E-01  1.480000000000E-01 -3.050000000000E-01
H53  3.860000000000E-01 -1.300000000000E-01  1.140000000000E-01
H54 -3.860000000000E-01  1.300000000000E-01 -1.140000000000E-01
H55  3.510000000000E-01 -1.130000000000E-01 -7.200000000000E-02
H56 -3.510000000000E-01  1.130000000000E-01  7.200000000000E-02
H57 -3.150000000000E-01  8.900000000000E-02  2.530000000000E-01
H58  3.150000000000E-01 -8.900000000000E-02 -2.530000000000E-01
H59 -3.450000000000E-01  2.460000000000E-01  4.250000000000E-01
H60  3.450000000000E-01 -2.460000000000E-01 -4.250000000000E-01


#===END

data_OPT_STEP_2

_symmetry_space_group_name_H-M 'P 1'
_cell_length_a      7.90000000
_cell_length_b      6.03000000
_cell_length_c     13.53000000
_cell_angle_alpha  100.300000
_cell_angle_beta  113.200000
_cell_angle_gamma   86.300000

loop_
_atom_site_label
_atom_site_fract_x
_atom_site_fract_y
_atom_site_fract_z
C1  1.194000000000E-01  3.310000000000E-02  3.890000000000E-01
C2 -1.194000000000E-01 -3.310000000000E-02 -3.890000000000E-01
C3  1.494000000000E-01  1.564000000000E-01  3.219000000000E-01
C4 -1.494000000000E-01 -1.564000000000E-01 -3.219000000000E-01
C5  8.110000000000E-02  7.240000000000E-02  2.040000000000E-01
C6 -8.110000000000E-02 -7.240000000000E-02 -2.040000000000E-01
C7  1.094000000000E-01  1.899000000000E-01  1.360000000000E-01
C8 -1.094000000000E-01 -1.899000000000E-01 -1.360000000000E-01
C9  4.670000000000E-02  1.089000000000E-01  2.110000000000E-02
C10 -4.670000000000E-02 -1.089000000000E-01 -2.110000000000E-02
C11  6.910000000000E-02  2.228000000000E-01 -5.160000000000E-02
C12 -6.910000000000E-02 -2.228000000000E-01  5.160000000000E-02
C13 -3.500000000000E-03 -1.405000000000E-01  1.637000000000E-01
C14  3.500000000000E-03  1.405000000000E-01 -1.637000000000E-01
C15 -3.780000000000E-02 -2.646000000000E-01  2.355000000000E-01
C16  3.780000000000E-02  2.646000000000E-01 -2.355000000000E-01
C17  2.670000000000E-02 -1.832000000000E-01  3.483000000000E-01
C18 -2.670000000000E-02  1.832000000000E-01 -3.483000000000E-01
H19  1.680000000000E-01  1.000000000000E-01  4.700000000000E-01
H20 -1.680000000000E-01 -1.000000000000E-01 -4.700000000000E-01
H21  2.120000000000E-01  3.170000000000E-01  3.490000000000E-01
H22 -2.120000000000E-01 -3.170000000000E-01 -3.490000000000E-01
H23  1.760000000000E-01  3.540000000000E-01  1.650000000000E-01
H24 -1.760000000000E-01 -3.540000000000E-01 -1.650000000000E-01
H25  1.340000000000E-01  3.880000000000E-01 -2.200000000000E-02
H26 -1.340000000000E-01 -3.880000000000E-01  2.200000000000E-02
H27 -9.500000000000E-02 -4.250000000000E-01  2.020000000000E-01
H28  9.500000000000E-02  4.250000000000E-01 -2.020000000000E-01
H29  1.100000000000E-02 -2.790000000000E-01  4.000000000000E-01
H30 -1.100000000000E-02  2.790000000000E-01 -4.000000000000E-01
C31 -4.572000000000E-01 -4.320000000000E-01  3.787000000000E-01
C32  4.572000000000E-01  4.320000000000E-01 -3.787000000000E-01
C33  4.799000000000E-01 -3.139000000000E-01  2.930000000000E-01
C34 -4.799000000000E-01  3.139000000000E-01 -2.930000000000E-01
C35  4.997000000000E-01 -4.136000000000E-01  1.947000000000E-01
C36 -4.997000000000E-01  4.136000000000E-01 -1.947000000000E-01
C37  4.425000000000E-01 -2.993000000000E-01  1.048000000000E-01
C38 -4.425000000000E-01  2.993000000000E-01 -1.048000000000E-01
C39  4.638000000000E-01 -3.860000000000E-01  5.200000000000E-03
C40 -4.638000000000E-01  3.860000000000E-01 -5.200000000000E-03
C41  4.052000000000E-01 -2.758000000000E-01 -8.320000000000E-02
C42 -4.052000000000E-01  2.758000000000E-01  8.320000000000E-02
C43 -4.242000000000E-01  3.649000000000E-01  1.811000000000E-01
C44  4.242000000000E-01 -3.649000000000E-01 -1.811000000000E-01
C45 -3.694000000000E-01  2.568000000000E-01  2.685000000000E-01
C46  3.694000000000E-01 -2.568000000000E-01 -2.685000000000E-01
C47 -3.852000000000E-01  3.374000000000E-01  3.645000000000E-01
C48  3.852000000000E-01 -3.374000000000E-01 -3.645000000000E-01
H49 -4.690000000000E-01 -3.500000000000E-01  4.540000000000E-01
H50  4.690000000000E-01  3.500000000000E-01 -4.540000000000E-01
H51  4.250000000000E-01 -1.480000000000E-01  3.050000000000E-01
H52 -4.250000000000E-01  1.480000000000E-01 -3.050000000000E-01
H53  3.860000000000E-01 -1.300000000000E-01  1.140000000000E-01
H54 -3.860000000000E-01  1.300000000000E-01 -1.140000000000E-01
H55  3.510000000000E-01 -1.130000000000E-01 -7.200000000000E-02
H56 -3.510000000000E-01  1.130000000000E-01  7.200000000000E-02
H57 -3.150000000000E-01  8.900000000000E-02  2.530000000000E-01
H58  3.150000000000E-01 -8.900000000000E-02 -2.530000000000E-01
H59 -3.450000000000E-01  2.460000000000E-01  4.250000000000E-01
H60  3.450000000000E-01 -2.460000000000E-01 -4.250000000000E-01


#===END

data_OPT_STEP_3

_symmetry_space_group_name_H-M 'P 1'
_cell_length_a      7.88016151
_cell_length_b      6.05851569
_cell_length_c     13.56342132
_cell_angle_alpha  100.351989
_cell_angle_beta  113.235209
_cell_angle_gamma   86.193647

loop_
_atom_site_label
_atom_site_fract_x
_atom_site_fract_y
_atom_site_fract_z
C1  1.190414102055E-01  3.512529086133E-02  3.893376474324E-01
C2 -1.190414102055E-01 -3.512529086133E-02 -3.893376474324E-01
C3  1.455123291694E-01  1.597471999091E-01  3.215762939663E-01
C4 -1.455123291694E-01 -1.597471999091E-01 -3.215762939663E-01
C5  8.240380688069E-02  7.291473325740E-02  2.045914034264E-01
C6 -8.240380688069E-02 -7.291473325740E-02 -2.045914034264E-01
C7  1.090162359260E-01  1.914993799573E-01  1.353244598386E-01
C8 -1.090162359260E-01 -1.914993799573E-01 -1.353244598386E-01
C9  4.603096677617E-02  1.094581976815E-01  2.082216080297E-02
C10 -4.603096677617E-02 -1.094581976815E-01 -2.082216080297E-02
C11  6.984101664593E-02  2.241189938289E-01 -5.218710363602E-02
C12 -6.984101664593E-02 -2.241189938289E-01  5.218710363602E-02
C13 -8.216525287465E-03 -1.383723798912E-01  1.639244163107E-01
C14  8.216525287465E-03  1.383723798912E-01 -1.639244163107E-01
C15 -3.353046033894E-02 -2.657578873333E-01  2.374121079803E-01
C16  3.353046033894E-02  2.657578873333E-01 -2.374121079803E-01
C17  2.849518396126E-02 -1.816916779600E-01  3.488741467869E-01
C18 -2.849518396126E-02  1.816916779600E-01 -3.488741467869E-01
H19  1.670559629454E-01  1.028990618460E-01  4.720127978276E-01
H20 -1.670559629454E-01 -1.028990618460E-01 -4.720127978276E-01
H21  2.101626375020E-01  3.211803549987E-01  3.493906018576E-01
H22 -2.101626375020E-01 -3.211803549987E-01 -3.493906018576E-01
H23  1.764106843625E-01  3.556326042175E-01  1.644879349388E-01
H24 -1.764106843625E-01 -3.556326042175E-01 -1.644879349388E-01
H25  1.387294573085E-01  3.877165904350E-01 -2.222507053422E-02
H26 -1.387294573085E-01 -3.877165904350E-01  2.222507053422E-02
H27 -9.257060431727E-02 -4.277861861497E-01  2.042646222220E-01
H28  9.257060431727E-02  4.277861861497E-01 -2.042646222220E-01
H29  8.337369540913E-03 -2.752257427998E-01  4.015601784346E-01
H30 -8.337369540912E-03  2.752257427998E-01 -4.015601784346E-01
C31 -4.573708074936E-01 -4.324492096129E-01  3.787186220972E-01
C32  4.573708074936E-01  4.324492096129E-01 -3.787186220972E-01
C33  4.836531969042E-01 -3.132172082983E-01  2.935090670082E-01
C34 -4.836531969042E-01  3.132172082983E-01 -2.935090670082E-01
C35 -4.999677404869E-01 -4.131484797276E-01  1.939799194210E-01
C36  4.999677404869E-01  4.131484797276E-01 -1.939799194210E-01
C37  4.425416352856E-01 -2.981987319835E-01  1.046761587791E-01
C38 -4.425416352856E-01  2.981987319835E-01 -1.046761587791E-01
C39  4.594050702530E-01 -3.881155146262E-01  4.379258874484E-03
C40 -4.594050702530E-01  3.881155146262E-01 -4.379258874484E-03
C41  4.050085615487E-01 -2.738881649625E-01 -8.331169838219E-02
C42 -4.050085615487E-01  2.738881649625E-01  8.331169838219E-02
C43 -4.223167360477E-01  3.652129115668E-01  1.814862773318E-01
C44  4.223167360477E-01 -3.652129115668E-01 -1.814862773318E-01
C45 -3.681492655854E-01  2.545487236737E-01  2.698806349969E-01
C46  3.681492655854E-01 -2.545487236737E-01 -2.698806349969E-01
C47 -3.800481102278E-01  3.415778338546E-01  3.668696537481E-01
C48  3.800481102278E-01 -3.415778338546E-01 -3.668696537481E-01
H49 -4.688865756440E-01 -3.508885270902E-01  4.545080109972E-01
H50  4.688865756440E-01  3.508885270902E-01 -4.545080109972E-01
H51  4.276210602235E-01 -1.465579520509E-01  3.047400324752E-01
H52 -4.276210602235E-01  1.465579520509E-01 -3.047400324752E-01
H53  3.833839387429E-01 -1.298112251848E-01  1.132718659018E-01
H54 -3.833839387429E-01  1.298112251848E-01 -1.132718659018E-01
H55  3.482473988908E-01 -1.099296549834E-01 -7.318627871343E-02
H56 -3.482473988908E-01  1.099296549834E-01  7.318627871343E-02
H57 -3.115007335398E-01  8.622652434009E-02  2.567776455306E-01
H58  3.115007335398E-01 -8.622652434009E-02 -2.567776455306E-01
H59 -3.359527758583E-01  2.518933424165E-01  4.302694112554E-01
H60  3.359527758583E-01 -2.518933424165E-01 -4.302694112554E-01


#===END

data_OPT_STEP_4

_symmetry_space_group_name_H-M 'P 1'
_cell_length_a      7.87263726
_cell_length_b      6.10094550
_cell_length_c     13.59610533
_cell_angle_alpha  101.095226
_cell_angle_beta  113.124237
_cell_angle_gamma   84.808813

loop_
_atom_site_label
_atom_site_fract_x
_atom_site_fract_y
_atom_site_fract_z
C1  1.163620877633E-01  4.295159431003E-02  3.892425095826E-01
C2 -1.163620877633E-01 -4.295159431003E-02 -3.892425095826E-01
C3  1.480434263087E-01  1.603004758754E-01  3.214983143430E-01
C4 -1.480434263087E-01 -1.603004758754E-01 -3.214983143430E-01
C5  8.206998742163E-02  7.562043766887E-02  2.050249693836E-01
C6 -8.206998742163E-02 -7.562043766887E-02 -2.050249693836E-01
C7  1.051096391961E-01  1.941884907456E-01  1.341688146932E-01
C8 -1.051096391961E-01 -1.941884907456E-01 -1.341688146932E-01
C9  4.481516541472E-02  1.088350194244E-01  2.048881963226E-02
C10 -4.481516541472E-02 -1.088350194244E-01 -2.048881963226E-02
C11  6.319218247245E-02  2.266376691470E-01 -5.352013241484E-02
C12 -6.319218247245E-02 -2.266376691470E-01  5.352013241484E-02
C13  1.006595751313E-03 -1.414897497023E-01  1.653932875632E-01
C14 -1.006595751313E-03  1.414897497023E-01 -1.653932875632E-01
C15 -3.231241290506E-02 -2.579543659294E-01  2.387174126419E-01
C16  3.231241290506E-02  2.579543659294E-01 -2.387174126419E-01
C17  3.072499529092E-02 -1.735533054933E-01  3.490110705287E-01
C18 -3.072499529092E-02  1.735533054933E-01 -3.490110705287E-01
H19  1.560342860222E-01  1.161278483539E-01  4.734232412764E-01
H20 -1.560342860222E-01 -1.161278483539E-01 -4.734232412764E-01
H21  2.129852907433E-01  3.226997927032E-01  3.501267208707E-01
H22 -2.129852907433E-01 -3.226997927032E-01 -3.501267208707E-01
H23  1.731373501400E-01  3.571577328165E-01  1.638550061208E-01
H24 -1.731373501400E-01 -3.571577328165E-01 -1.638550061208E-01
H25  1.275588849601E-01  3.921593461251E-01 -2.361607275173E-02
H26 -1.275588849601E-01 -3.921593461251E-01  2.361607275173E-02
H27 -9.480433651408E-02 -4.204083303052E-01  2.060649332723E-01
H28  9.480433651408E-02  4.204083303052E-01 -2.060649332723E-01
H29  1.084930074996E-02 -2.662733289239E-01  4.033392646373E-01
H30 -1.084930074996E-02  2.662733289239E-01 -4.033392646373E-01
C31 -4.589438442854E-01 -4.303135047381E-01  3.783220687422E-01
C32  4.589438442854E-01  4.303135047381E-01 -3.783220687422E-01
C33  4.767063212079E-01 -3.147528830515E-01  2.923387395181E-01
C34 -4.767063212079E-01  3.147528830515E-01 -2.923387395181E-01
C35  4.971331196225E-01 -4.118026375392E-01  1.926099706556E-01
C36 -4.971331196225E-01  4.118026375392E-01 -1.926099706556E-01
C37  4.445916779750E-01 -2.933084508793E-01  1.055467805292E-01
C38 -4.445916779750E-01  2.933084508793E-01 -1.055467805292E-01
C39  4.674095021134E-01 -3.834525040669E-01  6.833413951629E-03
C40 -4.674095021134E-01  3.834525040669E-01 -6.833413951629E-03
C41  4.130374840817E-01 -2.666927318290E-01 -8.058251205852E-02
C42 -4.130374840817E-01  2.666927318290E-01  8.058251205852E-02
C43 -4.298620499986E-01  3.611622558715E-01  1.791087740581E-01
C44  4.298620499986E-01 -3.611622558715E-01 -1.791087740581E-01
C45 -3.711128948566E-01  2.500386870079E-01  2.692525805800E-01
C46  3.711128948566E-01 -2.500386870079E-01 -2.692525805800E-01
C47 -3.879929621525E-01  3.417565149006E-01  3.653910191875E-01
C48  3.879929621525E-01 -3.417565149006E-01 -3.653910191875E-01
H49 -4.712977774580E-01 -3.496294995026E-01  4.550653793936E-01
H50  4.712977774580E-01  3.496294995026E-01 -4.550653793936E-01
H51  4.142563353454E-01 -1.481061787640E-01  3.021382528345E-01
H52 -4.142563353454E-01  1.481061787640E-01 -3.021382528345E-01
H53  3.854269947071E-01 -1.228012500733E-01  1.147685113861E-01
H54 -3.854269947071E-01  1.228012500733E-01 -1.147685113861E-01
H55  3.547950819280E-01 -9.894886783108E-02 -7.075482310204E-02
H56 -3.547950819280E-01  9.894886783108E-02  7.075482310204E-02
H57 -3.063799040916E-01  8.247942641011E-02  2.595908515713E-01
H58  3.063799040916E-01 -8.247942641011E-02 -2.595908515713E-01
H59 -3.388403786119E-01  2.545876450455E-01  4.322426513005E-01
H60  3.388403786119E-01 -2.545876450455E-01 -4.322426513005E-01


#===END

data_OPT_STEP_5

_symmetry_space_group_name_H-M 'P 1'
_cell_length_a      7.77933579
_cell_length_b      6.10618514
_cell_length_c     13.58358413
_cell_angle_alpha  100.323747
_cell_angle_beta  112.812032
_cell_angle_gamma   86.436924

loop_
_atom_site_label
_atom_site_fract_x
_atom_site_fract_y
_atom_site_fract_z
C1  1.118249521718E-01  3.368199826358E-02  3.877376738783E-01
C2 -1.118249521718E-01 -3.368199826358E-02 -3.877376738783E-01
C3  1.451683681228E-01  1.543239054578E-01  3.206123934176E-01
C4 -1.451683681228E-01 -1.543239054578E-01 -3.206123934176E-01
C5  7.972424588011E-02  7.157425120836E-02  2.043937761293E-01
C6 -7.972424588011E-02 -7.157425120836E-02 -2.043937761293E-01
C7  1.042581621917E-01  1.936957534522E-01  1.341014265660E-01
C8 -1.042581621917E-01 -1.936957534522E-01 -1.341014265660E-01
C9  4.523026874871E-02  1.097701594889E-01  2.073383266947E-02
C10 -4.523026874871E-02 -1.097701594889E-01 -2.073383266947E-02
C11  6.548392785694E-02  2.310120984286E-01 -5.261789146440E-02
C12 -6.548392785694E-02 -2.310120984286E-01  5.261789146440E-02
C13 -1.521911658605E-03 -1.477640323165E-01  1.643385811207E-01
C14  1.521911658605E-03  1.477640323165E-01 -1.643385811207E-01
C15 -3.712638355037E-02 -2.674549232343E-01  2.369498182915E-01
C16  3.712638355037E-02  2.674549232343E-01 -2.369498182915E-01
C17  2.460551961929E-02 -1.842614354594E-01  3.469102876870E-01
C18 -2.460551961929E-02  1.842614354594E-01 -3.469102876870E-01
H19  1.511795924599E-01  1.055989148451E-01  4.720112968750E-01
H20 -1.511795924599E-01 -1.055989148451E-01 -4.720112968750E-01
H21  2.106516243853E-01  3.183516107451E-01  3.496706734802E-01
H22 -2.106516243853E-01 -3.183516107451E-01 -3.496706734802E-01
H23  1.727490052292E-01  3.583064946116E-01  1.642187657940E-01
H24 -1.727490052292E-01 -3.583064946116E-01 -1.642187657940E-01
H25  1.305649330018E-01  3.979023901626E-01 -2.228164861108E-02
H26 -1.305649330018E-01 -3.979023901626E-01  2.228164861108E-02
H27 -1.001288021200E-01 -4.311137465333E-01  2.041075681588E-01
H28  1.001288021200E-01  4.311137465333E-01 -2.041075681588E-01
H29  3.110214657178E-03 -2.791413505857E-01  4.008764540404E-01
H30 -3.110214657178E-03  2.791413505857E-01 -4.008764540404E-01
C31 -4.552290748265E-01 -4.277921609803E-01  3.789487082974E-01
C32  4.552290748265E-01  4.277921609803E-01 -3.789487082974E-01
C33  4.796351965512E-01 -3.146497015833E-01  2.921918921230E-01
C34 -4.796351965512E-01  3.146497015833E-01 -2.921918921230E-01
C35  4.994777253309E-01 -4.109165901038E-01  1.927152602984E-01
C36 -4.994777253309E-01  4.109165901038E-01 -1.927152602984E-01
C37  4.447241318988E-01 -2.953322583117E-01  1.046251263242E-01
C38 -4.447241318988E-01  2.953322583117E-01 -1.046251263242E-01
C39  4.668274827124E-01 -3.850873343341E-01  6.133314914286E-03
C40 -4.668274827124E-01  3.850873343341E-01 -6.133314914286E-03
C41  4.095640156143E-01 -2.715669709157E-01 -8.250155803995E-02
C42 -4.095640156143E-01  2.715669709157E-01  8.250155803995E-02
C43 -4.262092535748E-01  3.653523257642E-01  1.806678616598E-01
C44  4.262092535748E-01 -3.653523257642E-01 -1.806678616598E-01
C45 -3.657963145649E-01  2.565088580046E-01  2.718023299381E-01
C46  3.657963145649E-01 -2.565088580046E-01 -2.718023299381E-01
C47 -3.828963417411E-01  3.478337627248E-01  3.675300183075E-01
C48  3.828963417411E-01 -3.478337627248E-01 -3.675300183075E-01
H49 -4.686971495392E-01 -3.485572399632E-01  4.551654170504E-01
H50  4.686971495392E-01  3.485572399632E-01 -4.551654170504E-01
H51  4.171924028761E-01 -1.497503520494E-01  3.010818948344E-01
H52 -4.171924028761E-01  1.497503520494E-01 -3.010818948344E-01
H53  3.850492189979E-01 -1.270105279090E-01  1.128821034130E-01
H54 -3.850492189979E-01  1.270105279090E-01 -1.128821034130E-01
H55  3.502358495557E-01 -1.060197584833E-01 -7.379360368573E-02
H56 -3.502358495557E-01  1.060197584833E-01  7.379360368573E-02
H57 -3.007239186165E-01  9.093463112111E-02  2.632210331049E-01
H58  3.007239186165E-01 -9.093463112111E-02 -2.632210331049E-01
H59 -3.322489317131E-01  2.626901482585E-01  4.354214404335E-01
H60  3.322489317131E-01 -2.626901482585E-01 -4.354214404335E-01


#===END

data_OPT_STEP_6

_symmetry_space_group_name_H-M 'P 1'
_cell_length_a      7.97192098
_cell_length_b      6.12964892
_cell_length_c     13.62487224
_cell_angle_alpha  101.671118
_cell_angle_beta  112.639444
_cell_angle_gamma   84.168628

loop_
_atom_site_label
_atom_site_fract_x
_atom_site_fract_y
_atom_site_fract_z
C1  1.367809573138E-01  3.446707056942E-02  3.907580045769E-01
C2 -1.367809573138E-01 -3.446707056942E-02 -3.907580045769E-01
C3  1.588560066679E-01  1.544153983826E-01  3.214952602992E-01
C4 -1.588560066679E-01 -1.544153983826E-01 -3.214952602992E-01
C5  9.187273871668E-02  7.142358940184E-02  2.059698109608E-01
C6 -9.187273871668E-02 -7.142358940184E-02 -2.059698109608E-01
C7  1.124485025900E-01  1.892053903169E-01  1.338620542823E-01
C8 -1.124485025900E-01 -1.892053903169E-01 -1.338620542823E-01
C9  4.561158354110E-02  1.066463521682E-01  2.044013095000E-02
C10 -4.561158354110E-02 -1.066463521682E-01 -2.044013095000E-02
C11  6.457623775038E-02  2.240929453145E-01 -5.369447411509E-02
C12 -6.457623775038E-02 -2.240929453145E-01  5.369447411509E-02
C13  6.945270695815E-03 -1.436502716820E-01  1.657399656120E-01
C14 -6.945270695815E-03  1.436502716820E-01 -1.657399656120E-01
C15 -2.076294390107E-02 -2.587599974849E-01  2.405407881041E-01
C16  2.076294390107E-02  2.587599974849E-01 -2.405407881041E-01
C17  3.713981778137E-02 -1.700094793690E-01  3.492195517791E-01
C18 -3.713981778137E-02  1.700094793690E-01 -3.492195517791E-01
H19  1.883125617204E-01  9.904581673829E-02  4.778147000360E-01
H20 -1.883125617204E-01 -9.904581673829E-02 -4.778147000360E-01
H21  2.193691786856E-01  3.206291940218E-01  3.510942604504E-01
H22 -2.193691786856E-01 -3.206291940218E-01 -3.510942604504E-01
H23  1.795558527541E-01  3.524470449747E-01  1.641962245022E-01
H24 -1.795558527541E-01 -3.524470449747E-01 -1.641962245022E-01
H25  1.314978901117E-01  3.876298246175E-01 -2.298310213690E-02
H26 -1.314978901117E-01 -3.876298246175E-01  2.298310213690E-02
H27 -8.498021715863E-02 -4.227745242511E-01  2.088396533909E-01
H28  8.498021715863E-02  4.227745242511E-01 -2.088396533909E-01
H29  1.097805459984E-02 -2.582966994394E-01  4.045746543976E-01
H30 -1.097805459984E-02  2.582966994394E-01 -4.045746543976E-01
C31 -4.575488044114E-01 -4.256692978670E-01  3.783612128476E-01
C32  4.575488044114E-01  4.256692978670E-01 -3.783612128476E-01
C33  4.779742694130E-01 -3.122504516145E-01  2.927638824434E-01
C34 -4.779742694130E-01  3.122504516145E-01 -2.927638824434E-01
C35  4.928128060626E-01 -4.115118665426E-01  1.909041837402E-01
C36 -4.928128060626E-01  4.115118665426E-01 -1.909041837402E-01
C37  4.380169717337E-01 -2.945654435267E-01  1.044237170983E-01
C38 -4.380169717337E-01  2.945654435267E-01 -1.044237170983E-01
C39  4.623673567895E-01 -3.864079256046E-01  6.250378261948E-03
C40 -4.623673567895E-01  3.864079256046E-01 -6.250378261948E-03
C41  4.047701276534E-01 -2.710681179365E-01 -8.184157340235E-02
C42 -4.047701276534E-01  2.710681179365E-01  8.184157340235E-02
C43 -4.271464890330E-01  3.645222380202E-01  1.790588911780E-01
C44  4.271464890330E-01 -3.645222380202E-01 -1.790588911780E-01
C45 -3.622810723636E-01  2.544331181661E-01  2.705985423519E-01
C46  3.622810723636E-01 -2.544331181661E-01 -2.705985423519E-01
C47 -3.716581579759E-01  3.560734792743E-01  3.684804486755E-01
C48  3.716581579759E-01 -3.560734792743E-01 -3.684804486755E-01
H49 -4.720874126279E-01 -3.471959046339E-01  4.557293456562E-01
H50  4.720874126279E-01  3.471959046339E-01 -4.557293456562E-01
H51  4.247578883487E-01 -1.385716894683E-01  3.039981967612E-01
H52 -4.247578883487E-01  1.385716894683E-01 -3.039981967612E-01
H53  3.856426170646E-01 -1.196395336179E-01  1.157115056534E-01
H54 -3.856426170646E-01  1.196395336179E-01 -1.157115056534E-01
H55  3.474917475109E-01 -9.972666062566E-02 -7.201355988441E-02
H56 -3.474917475109E-01  9.972666062566E-02  7.201355988441E-02
H57 -3.103439109710E-01  7.903974533605E-02  2.592634041753E-01
H58  3.103439109710E-01 -7.903974533605E-02 -2.592634041753E-01
H59 -3.048974988963E-01  2.784795415536E-01  4.412242306844E-01
H60  3.048974988963E-01 -2.784795415536E-01 -4.412242306844E-01


#===END

data_OPT_STEP_7

_symmetry_space_group_name_H-M 'P 1'
_cell_length_a      7.84713418
_cell_length_b      6.11867650
_cell_length_c     13.65568276
_cell_angle_alpha  102.269283
_cell_angle_beta  112.447877
_cell_angle_gamma   85.101389

loop_
_atom_site_label
_atom_site_fract_x
_atom_site_fract_y
_atom_site_fract_z
C1  1.067984572361E-01  5.565664678829E-02  3.874325769563E-01
C2 -1.067984572361E-01 -5.565664678829E-02 -3.874325769563E-01
C3  1.293016221142E-01  1.769298927339E-01  3.186859078162E-01
C4 -1.293016221142E-01 -1.769298927339E-01 -3.186859078162E-01
C5  7.580797862329E-02  8.448199137568E-02  2.046103657029E-01
C6 -7.580797862329E-02 -8.448199137568E-02 -2.046103657029E-01
C7  1.054789264041E-01  1.981879132771E-01  1.334875491613E-01
C8 -1.054789264041E-01 -1.981879132771E-01 -1.334875491613E-01
C9  4.330023173819E-02  1.096727334544E-01  2.087471179888E-02
C10 -4.330023173819E-02 -1.096727334544E-01 -2.087471179888E-02
C11  7.160393128172E-02  2.247949484808E-01 -5.164510405379E-02
C12 -7.160393128172E-02 -2.247949484808E-01  5.164510405379E-02
C13 -1.783060688518E-02 -1.310931414380E-01  1.621370586881E-01
C14  1.783060688518E-02  1.310931414380E-01 -1.621370586881E-01
C15 -3.624628029160E-02 -2.532262558821E-01  2.376925093208E-01
C16  3.624628029160E-02  2.532262558821E-01 -2.376925093208E-01
C17  1.986814042333E-02 -1.601477862003E-01  3.458046853618E-01
C18 -1.986814042333E-02  1.601477862003E-01 -3.458046853618E-01
H19  1.580845741331E-01  1.207416315133E-01  4.761943072292E-01
H20 -1.580845741331E-01 -1.207416315133E-01 -4.761943072292E-01
H21  1.973892864179E-01  3.439751386284E-01  3.514367990878E-01
H22 -1.973892864179E-01 -3.439751386284E-01 -3.514367990878E-01
H23  1.719199008434E-01  3.660236002351E-01  1.653423893331E-01
H24 -1.719199008434E-01 -3.660236002351E-01 -1.653423893331E-01
H25  1.359450724944E-01  3.936121705030E-01 -2.000420463712E-02
H26 -1.359450724944E-01 -3.936121705030E-01  2.000420463712E-02
H27 -1.021000200834E-01 -4.218415748568E-01  2.056720085157E-01
H28  1.021000200834E-01  4.218415748568E-01 -2.056720085157E-01
H29  6.440761245060E-04 -2.542281365218E-01  4.023974383414E-01
H30 -6.440761245059E-04  2.542281365218E-01 -4.023974383414E-01
C31 -4.536117198663E-01 -4.290141686334E-01  3.782209912603E-01
C32  4.536117198663E-01  4.290141686334E-01 -3.782209912603E-01
C33  4.839977437442E-01 -3.140955693642E-01  2.946892944236E-01
C34 -4.839977437442E-01  3.140955693642E-01 -2.946892944236E-01
C35  4.954553919577E-01 -4.121913747884E-01  1.910464559913E-01
C36 -4.954553919577E-01  4.121913747884E-01 -1.910464559913E-01
C37  4.395166605082E-01 -2.942026839435E-01  1.062047586917E-01
C38 -4.395166605082E-01  2.942026839435E-01 -1.062047586917E-01
C39  4.578161476158E-01 -3.893151356566E-01  6.388688320784E-03
C40 -4.578161476158E-01  3.893151356566E-01 -6.388688320784E-03
C41  4.052426728138E-01 -2.689715511119E-01 -7.966163110378E-02
C42 -4.052426728138E-01  2.689715511119E-01  7.966163110378E-02
C43 -4.247948956378E-01  3.637597570089E-01  1.777784017952E-01
C44  4.247948956378E-01 -3.637597570089E-01 -1.777784017952E-01
C45 -3.544567153749E-01  2.531306369128E-01  2.694481735196E-01
C46  3.544567153749E-01 -2.531306369128E-01 -2.694481735196E-01
C47 -3.752716135017E-01  3.513845178353E-01  3.646338346605E-01
C48  3.752716135017E-01 -3.513845178353E-01 -3.646338346605E-01
H49 -4.601654839114E-01 -3.492844570586E-01  4.583898449855E-01
H50  4.601654839114E-01  3.492844570586E-01 -4.583898449855E-01
H51  4.251067457474E-01 -1.424131764194E-01  3.053643638337E-01
H52 -4.251067457474E-01  1.424131764194E-01 -3.053643638337E-01
H53  3.859532480226E-01 -1.197863757032E-01  1.186165775614E-01
H54 -3.859532480226E-01  1.197863757032E-01 -1.186165775614E-01
H55  3.495345105883E-01 -9.499433380238E-02 -6.859016784390E-02
H56 -3.495345105883E-01  9.499433380238E-02  6.859016784390E-02
H57 -2.856184597815E-01  8.671352040117E-02  2.615391696985E-01
H58  2.856184597815E-01 -8.671352040117E-02 -2.615391696985E-01
H59 -3.212093636036E-01  2.667628327733E-01  4.349405498402E-01
H60  3.212093636036E-01 -2.667628327733E-01 -4.349405498402E-01


#===END

data_OPT_STEP_8

_symmetry_space_group_name_H-M 'P 1'
_cell_length_a      7.88980808
_cell_length_b      6.14502201
_cell_length_c     13.60511025
_cell_angle_alpha  101.524340
_cell_angle_beta  112.300384
_cell_angle_gamma   85.443134

loop_
_atom_site_label
_atom_site_fract_x
_atom_site_fract_y
_atom_site_fract_z
C1  1.292544257666E-01  3.955328738519E-02  3.905090802839E-01
C2 -1.292544257666E-01 -3.955328738519E-02 -3.905090802839E-01
C3  1.524032650559E-01  1.598016666316E-01  3.211283869503E-01
C4 -1.524032650559E-01 -1.598016666316E-01 -3.211283869503E-01
C5  8.652047180158E-02  7.549735894588E-02  2.058557445645E-01
C6 -8.652047180158E-02 -7.549735894588E-02 -2.058557445645E-01
C7  1.056619232504E-01  1.955476763420E-01  1.332317794913E-01
C8 -1.056619232504E-01 -1.955476763420E-01 -1.332317794913E-01
C9  4.620079545139E-02  1.072290006248E-01  2.056380803460E-02
C10 -4.620079545139E-02 -1.072290006248E-01 -2.056380803460E-02
C11  6.619015828543E-02  2.258143937778E-01 -5.365633119565E-02
C12 -6.619015828543E-02 -2.258143937778E-01  5.365633119565E-02
C13  2.037817935678E-03 -1.426086393321E-01  1.653703349873E-01
C14 -2.037817935678E-03  1.426086393321E-01 -1.653703349873E-01
C15 -2.237054273058E-02 -2.608946816033E-01  2.407281938158E-01
C16  2.237054273058E-02  2.608946816033E-01 -2.407281938158E-01
C17  4.693710641268E-02 -1.780660398150E-01  3.504867123984E-01
C18 -4.693710641268E-02  1.780660398150E-01 -3.504867123984E-01
H19  1.692153151561E-01  1.123949444143E-01  4.771021067224E-01
H20 -1.692153151561E-01 -1.123949444143E-01 -4.771021067224E-01
H21  2.145500138704E-01  3.273088125800E-01  3.515064829205E-01
H22 -2.145500138704E-01 -3.273088125800E-01 -3.515064829205E-01
H23  1.743681174978E-01  3.596968810711E-01  1.641285932194E-01
H24 -1.743681174978E-01 -3.596968810711E-01 -1.641285932194E-01
H25  1.413807454767E-01  3.863367011532E-01 -2.192506928706E-02
H26 -1.413807454767E-01 -3.863367011532E-01  2.192506928706E-02
H27 -9.035514337079E-02 -4.249431412309E-01  2.083881063697E-01
H28  9.035514337079E-02  4.249431412309E-01 -2.083881063697E-01
H29  3.276499426855E-02 -2.748488801194E-01  4.072169646206E-01
H30 -3.276499426855E-02  2.748488801194E-01 -4.072169646206E-01
C31 -4.552463888622E-01 -4.250012587812E-01  3.793219325837E-01
C32  4.552463888622E-01  4.250012587812E-01 -3.793219325837E-01
C33  4.851478071617E-01 -3.100568344458E-01  2.948743296433E-01
C34 -4.851478071617E-01  3.100568344458E-01 -2.948743296433E-01
C35 -4.966847962691E-01 -4.060029713157E-01  1.935524674346E-01
C36  4.966847962691E-01  4.060029713157E-01 -1.935524674346E-01
C37  4.441380840726E-01 -2.928451673708E-01  1.061524698583E-01
C38 -4.441380840726E-01  2.928451673708E-01 -1.061524698583E-01
C39  4.635890089340E-01 -3.871362017570E-01  6.622964176215E-03
C40 -4.635890089340E-01  3.871362017570E-01 -6.622964176215E-03
C41  4.018862499276E-01 -2.752511665269E-01 -8.248354571659E-02
C42 -4.018862499276E-01  2.752511665269E-01  8.248354571659E-02
C43 -4.200250525993E-01  3.705382751628E-01  1.808188987584E-01
C44  4.200250525993E-01 -3.705382751628E-01 -1.808188987584E-01
C45 -3.718323115526E-01  2.504568711609E-01  2.684058171941E-01
C46  3.718323115526E-01 -2.504568711609E-01 -2.684058171941E-01
C47 -3.677093099398E-01  3.594685869474E-01  3.694991384786E-01
C48  3.677093099398E-01 -3.594685869474E-01 -3.694991384786E-01
H49 -4.681190193544E-01 -3.477917723600E-01  4.572400645912E-01
H50  4.681190193544E-01  3.477917723600E-01 -4.572400645912E-01
H51  4.227046234106E-01 -1.425627966917E-01  3.039835231765E-01
H52 -4.227046234106E-01  1.425627966917E-01 -3.039835231765E-01
H53  3.716785151350E-01 -1.300673006101E-01  1.127510395049E-01
H54 -3.716785151350E-01  1.300673006101E-01 -1.127510395049E-01
H55  3.297515671607E-01 -1.128325592992E-01 -7.578357518179E-02
H56 -3.297515671607E-01  1.128325592992E-01  7.578357518179E-02
H57 -3.324976507546E-01  7.119853163180E-02  2.539636955595E-01
H58  3.324976507546E-01 -7.119853163180E-02 -2.539636955595E-01
H59 -3.089152084070E-01  2.780603383130E-01  4.407868557633E-01
H60  3.089152084070E-01 -2.780603383130E-01 -4.407868557633E-01


#===END

data_OPT_STEP_9

_symmetry_space_group_name_H-M 'P 1'
_cell_length_a      7.85094837
_cell_length_b      6.12187279
_cell_length_c     13.64343502
_cell_angle_alpha  102.183939
_cell_angle_beta  112.440205
_cell_angle_gamma   85.116661

loop_
_atom_site_label
_atom_site_fract_x
_atom_site_fract_y
_atom_site_fract_z
C1  1.110038127645E-01  5.273904113732E-02  3.881312830952E-01
C2 -1.110038127645E-01 -5.273904113732E-02 -3.881312830952E-01
C3  1.349941614902E-01  1.729961966132E-01  3.194843874931E-01
C4 -1.349941614902E-01 -1.729961966132E-01 -3.194843874931E-01
C5  7.720007285488E-02  8.308346760750E-02  2.048806508183E-01
C6 -7.720007285488E-02 -8.308346760750E-02 -2.048806508183E-01
C7  1.037828655013E-01  1.987826197085E-01  1.334893032767E-01
C8 -1.037828655013E-01 -1.987826197085E-01 -1.334893032767E-01
C9  4.449771827541E-02  1.089189322214E-01  2.091939022352E-02
C10 -4.449771827541E-02 -1.089189322214E-01 -2.091939022352E-02
C11  7.027569893466E-02  2.250325464802E-01 -5.200892089531E-02
C12 -7.027569893466E-02 -2.250325464802E-01  5.200892089531E-02
C13 -1.216592592264E-02 -1.343151264758E-01  1.629691955841E-01
C14  1.216592592264E-02  1.343151264758E-01 -1.629691955841E-01
C15 -3.521867844779E-02 -2.536879630656E-01  2.379286345042E-01
C16  3.521867844779E-02  2.536879630656E-01 -2.379286345042E-01
C17  2.428153984285E-02 -1.632670674404E-01  3.466547204511E-01
C18 -2.428153984285E-02  1.632670674404E-01 -3.466547204511E-01
H19  1.574934414199E-01  1.213359893685E-01  4.760649109711E-01
H20 -1.574934414199E-01 -1.213359893685E-01 -4.760649109711E-01
H21  2.012781650422E-01  3.402080688553E-01  3.515923747489E-01
H22 -2.012781650422E-01 -3.402080688553E-01 -3.515923747489E-01
H23  1.709383120603E-01  3.655857396271E-01  1.651848061961E-01
H24 -1.709383120603E-01 -3.655857396271E-01 -1.651848061961E-01
H25  1.383027888025E-01  3.912516538474E-01 -2.016793132584E-02
H26 -1.383027888025E-01 -3.912516538474E-01  2.016793132584E-02
H27 -1.014596240055E-01 -4.210302780638E-01  2.056542825679E-01
H28  1.014596240055E-01  4.210302780638E-01 -2.056542825679E-01
H29  5.000693833082E-03 -2.573441105036E-01  4.029577285161E-01
H30 -5.000693833082E-03  2.573441105036E-01 -4.029577285161E-01
C31 -4.545735488688E-01 -4.284240002008E-01  3.785057072364E-01
C32  4.545735488688E-01  4.284240002008E-01 -3.785057072364E-01
C33  4.843996072563E-01 -3.127910919684E-01  2.949580042275E-01
C34 -4.843996072563E-01  3.127910919684E-01 -2.949580042275E-01
C35  4.984867024998E-01 -4.101031796906E-01  1.920945144771E-01
C36 -4.984867024998E-01  4.101031796906E-01 -1.920945144771E-01
C37  4.420309754348E-01 -2.930765293277E-01  1.067057688683E-01
C38 -4.420309754348E-01  2.930765293277E-01 -1.067057688683E-01
C39  4.609273595837E-01 -3.877701597822E-01  6.911338511783E-03
C40 -4.609273595837E-01  3.877701597822E-01 -6.911338511783E-03
C41  4.048727147405E-01 -2.701381706174E-01 -7.999956754627E-02
C42 -4.048727147405E-01  2.701381706174E-01  7.999956754627E-02
C43 -4.223775068726E-01  3.658877271170E-01  1.786842053014E-01
C44  4.223775068726E-01 -3.658877271170E-01 -1.786842053014E-01
C45 -3.597466573601E-01  2.515724071064E-01  2.686637039154E-01
C46  3.597466573601E-01 -2.515724071064E-01 -2.686637039154E-01
C47 -3.710462836765E-01  3.536986085959E-01  3.662351942218E-01
C48  3.710462836765E-01 -3.536986085959E-01 -3.662351942218E-01
H49 -4.626463775232E-01 -3.491997017615E-01  4.580965537369E-01
H50  4.626463775232E-01  3.491997017615E-01 -4.580965537369E-01
H51  4.248253227392E-01 -1.420148944503E-01  3.055055908905E-01
H52 -4.248253227392E-01  1.420148944503E-01 -3.055055908905E-01
H53  3.817346107129E-01 -1.224906449518E-01  1.173447380629E-01
H54 -3.817346107129E-01  1.224906449518E-01 -1.173447380629E-01
H55  3.438479831656E-01 -9.978008505147E-02 -7.002548772845E-02
H56 -3.438479831656E-01  9.978008505147E-02  7.002548772845E-02
H57 -2.999859645551E-01  8.109035269606E-02  2.583526753489E-01
H58  2.999859645551E-01 -8.109035269606E-02 -2.583526753489E-01
H59 -3.150755065379E-01  2.698791914585E-01  4.366708335805E-01
H60  3.150755065379E-01 -2.698791914585E-01 -4.366708335805E-01


#===END

data_OPT_STEP_10

_symmetry_space_group_name_H-M 'P 1'
_cell_length_a      7.84355623
_cell_length_b      6.12124538
_cell_length_c     13.62491270
_cell_angle_alpha  101.926704
_cell_angle_beta  112.343679
_cell_angle_gamma   85.490989

loop_
_atom_site_label
_atom_site_fract_x
_atom_site_fract_y
_atom_site_fract_z
C1  1.182154243155E-01  4.670572543378E-02  3.892019860950E-01
C2 -1.182154243155E-01 -4.670572543378E-02 -3.892019860950E-01
C3  1.410209123858E-01  1.681348638354E-01  3.202360502609E-01
C4 -1.410209123858E-01 -1.681348638354E-01 -3.202360502609E-01
C5  8.103928035879E-02  7.970016627607E-02  2.054418622735E-01
C6 -8.103928035879E-02 -7.970016627607E-02 -2.054418622735E-01
C7  1.051518739819E-01  1.978475906056E-01  1.336540077910E-01
C8 -1.051518739819E-01 -1.978475906056E-01 -1.336540077910E-01
C9  4.493732844650E-02  1.090073227416E-01  2.088528551418E-02
C10 -4.493732844650E-02 -1.090073227416E-01 -2.088528551418E-02
C11  6.959025131786E-02  2.265383307093E-01 -5.236508654523E-02
C12 -6.959025131786E-02 -2.265383307093E-01  5.236508654523E-02
C13 -7.224983584487E-03 -1.388418142570E-01  1.637592591129E-01
C14  7.224983584487E-03  1.388418142570E-01 -1.637592591129E-01
C15 -3.182013808216E-02 -2.579272409792E-01  2.386584106317E-01
C16  3.182013808216E-02  2.579272409792E-01 -2.386584106317E-01
C17  2.825145652157E-02 -1.680420348641E-01  3.476022291042E-01
C18 -2.825145652157E-02  1.680420348641E-01 -3.476022291042E-01
H19  1.659198035159E-01  1.150878134117E-01  4.771909777570E-01
H20 -1.659198035159E-01 -1.150878134117E-01 -4.771909777570E-01
H21  2.052058929889E-01  3.366388102699E-01  3.518064716632E-01
H22 -2.052058929889E-01 -3.366388102699E-01 -3.518064716632E-01
H23  1.728961383100E-01  3.644500129467E-01  1.653252286325E-01
H24 -1.728961383100E-01 -3.644500129467E-01 -1.653252286325E-01
H25  1.402915504822E-01  3.914361486168E-01 -2.033996060622E-02
H26 -1.402915504822E-01 -3.914361486168E-01  2.033996060622E-02
H27 -9.862949506141E-02 -4.248577262835E-01  2.063894270168E-01
H28  9.862949506141E-02  4.248577262835E-01 -2.063894270168E-01
H29  7.702270004216E-03 -2.620012275456E-01  4.038483012072E-01
H30 -7.702270004216E-03  2.620012275456E-01 -4.038483012072E-01
C31 -4.536141785895E-01 -4.262749746107E-01  3.792253107288E-01
C32  4.536141785895E-01  4.262749746107E-01 -3.792253107288E-01
C33  4.837266699813E-01 -3.118782442315E-01  2.949333684581E-01
C34 -4.837266699813E-01  3.118782442315E-01 -2.949333684581E-01
C35  4.983727478177E-01 -4.091559576479E-01  1.923323146754E-01
C36 -4.983727478177E-01  4.091559576479E-01 -1.923323146754E-01
C37  4.405368148238E-01 -2.938714184379E-01  1.061003647364E-01
C38 -4.405368148238E-01  2.938714184379E-01 -1.061003647364E-01
C39  4.594837003809E-01 -3.887565650268E-01  6.306484441270E-03
C40 -4.594837003809E-01  3.887565650268E-01 -6.306484441270E-03
C41  4.030631415742E-01 -2.725148851337E-01 -8.113653184016E-02
C42 -4.030631415742E-01  2.725148851337E-01  8.113653184016E-02
C43 -4.214290805133E-01  3.680394639581E-01  1.795890257588E-01
C44  4.214290805133E-01 -3.680394639581E-01 -1.795890257588E-01
C45 -3.597357180057E-01  2.537893435905E-01  2.697745934838E-01
C46  3.597357180057E-01 -2.537893435905E-01 -2.697745934838E-01
C47 -3.740948749443E-01  3.539743617534E-01  3.665903329900E-01
C48  3.740948749443E-01 -3.539743617534E-01 -3.665903329900E-01
H49 -4.636065139385E-01 -3.483092472354E-01  4.582064832968E-01
H50  4.636065139385E-01  3.483092472354E-01 -4.582064832968E-01
H51  4.222016013933E-01 -1.426227588269E-01  3.047736556534E-01
H52 -4.222016013933E-01  1.426227588269E-01 -3.047736556534E-01
H53  3.801924788444E-01 -1.237817751735E-01  1.162324981055E-01
H54 -3.801924788444E-01  1.237817751735E-01 -1.162324981055E-01
H55  3.420824194583E-01 -1.027744015653E-01 -7.137940747125E-02
H56 -3.420824194583E-01  1.027744015653E-01  7.137940747125E-02
H57 -2.984882655057E-01  8.459751520904E-02  2.599699629353E-01
H58  2.984882655057E-01 -8.459751520904E-02 -2.599699629353E-01
H59 -3.239663982949E-01  2.669718251552E-01  4.358986110549E-01
H60  3.239663982949E-01 -2.669718251552E-01 -4.358986110549E-01


#===END

data_OPT_STEP_11

_symmetry_space_group_name_H-M 'P 1'
_cell_length_a      7.82239229
_cell_length_b      6.10961853
_cell_length_c     13.60148118
_cell_angle_alpha  101.503354
_cell_angle_beta  112.322492
_cell_angle_gamma   85.943990

loop_
_atom_site_label
_atom_site_fract_x
_atom_site_fract_y
_atom_site_fract_z
C1  1.205725352138E-01  4.402357642944E-02  3.899212818103E-01
C2 -1.205725352138E-01 -4.402357642944E-02 -3.899212818103E-01
C3  1.435318726130E-01  1.659681377600E-01  3.205865613607E-01
C4 -1.435318726130E-01 -1.659681377600E-01 -3.205865613607E-01
C5  8.257966888940E-02  7.812706347450E-02  2.057620054924E-01
C6 -8.257966888940E-02 -7.812706347450E-02 -2.057620054924E-01
C7  1.068058437976E-01  1.971949665485E-01  1.336519770178E-01
C8 -1.068058437976E-01 -1.971949665485E-01 -1.336519770178E-01
C9  4.459740602454E-02  1.097542258172E-01  2.069365186261E-02
C10 -4.459740602454E-02 -1.097542258172E-01 -2.069365186261E-02
C11  6.752341643759E-02  2.295068276185E-01 -5.303937641726E-02
C12 -6.752341643759E-02 -2.295068276185E-01  5.303937641726E-02
C13 -6.166970500761E-03 -1.411708085142E-01  1.643664500073E-01
C14  6.166970500761E-03  1.411708085142E-01 -1.643664500073E-01
C15 -2.880244083138E-02 -2.623604185542E-01  2.398350453005E-01
C16  2.880244083138E-02  2.623604185542E-01 -2.398350453005E-01
C17  3.414147001403E-02 -1.740707275763E-01  3.490477823721E-01
C18 -3.414147001403E-02  1.740707275763E-01 -3.490477823721E-01
H19  1.685275104824E-01  1.128290564114E-01  4.779877461962E-01
H20 -1.685275104824E-01 -1.128290564114E-01 -4.779877461962E-01
H21  2.077668185134E-01  3.350910876459E-01  3.516517536843E-01
H22 -2.077668185134E-01 -3.350910876459E-01 -3.516517536843E-01
H23  1.748492015165E-01  3.642382234106E-01  1.651599839991E-01
H24 -1.748492015165E-01 -3.642382234106E-01 -1.651599839991E-01
H25  1.348434561767E-01  3.969733388741E-01 -2.156922355093E-02
H26 -1.348434561767E-01 -3.969733388741E-01  2.156922355093E-02
H27 -9.631812145385E-02 -4.293675526555E-01  2.077262180034E-01
H28  9.631812145385E-02  4.293675526555E-01 -2.077262180034E-01
H29  1.677449722555E-02 -2.705463142365E-01  4.058832393483E-01
H30 -1.677449722554E-02  2.705463142365E-01 -4.058832393483E-01
C31 -4.521801051026E-01 -4.244817841877E-01  3.800088106186E-01
C32  4.521801051026E-01  4.244817841877E-01 -3.800088106186E-01
C33  4.870008449348E-01 -3.093156073455E-01  2.955392074212E-01
C34 -4.870008449348E-01  3.093156073455E-01 -2.955392074212E-01
C35 -4.991011075030E-01 -4.071926524654E-01  1.929707351589E-01
C36  4.991011075030E-01  4.071926524654E-01 -1.929707351589E-01
C37  4.423871038508E-01 -2.927998818858E-01  1.059852919659E-01
C38 -4.423871038508E-01  2.927998818858E-01 -1.059852919659E-01
C39  4.603976938459E-01 -3.884819574075E-01  6.102152639159E-03
C40 -4.603976938459E-01  3.884819574075E-01 -6.102152639159E-03
C41  4.026882736788E-01 -2.734442936627E-01 -8.218348548961E-02
C42 -4.026882736788E-01  2.734442936627E-01  8.218348548961E-02
C43 -4.203247106108E-01  3.695744050725E-01  1.806619190374E-01
C44  4.203247106108E-01 -3.695744050725E-01 -1.806619190374E-01
C45 -3.581635412308E-01  2.556951957970E-01  2.715335227407E-01
C46  3.581635412308E-01 -2.556951957970E-01 -2.715335227407E-01
C47 -3.740601168956E-01  3.551340157013E-01  3.678664830893E-01
C48  3.740601168956E-01 -3.551340157013E-01 -3.678664830893E-01
H49 -4.637064880319E-01 -3.475149548286E-01  4.584529348037E-01
H50  4.637064880319E-01  3.475149548286E-01 -4.584529348037E-01
H51  4.273957003051E-01 -1.392359298181E-01  3.052378376951E-01
H52 -4.273957003051E-01  1.392359298181E-01 -3.052378376951E-01
H53  3.825120129898E-01 -1.226588140942E-01  1.155463290583E-01
H54 -3.825120129898E-01  1.226588140942E-01 -1.155463290583E-01
H55  3.422509771389E-01 -1.036243584306E-01 -7.277510831076E-02
H56 -3.422509771389E-01  1.036243584306E-01  7.277510831076E-02
H57 -2.971929911221E-01  8.653467386281E-02  2.621880426797E-01
H58  2.971929911221E-01 -8.653467386281E-02 -2.621880426797E-01
H59 -3.253047297661E-01  2.671073259367E-01  4.373774529133E-01
H60  3.253047297661E-01 -2.671073259367E-01 -4.373774529133E-01


#===END

data_OPT_STEP_12

_symmetry_space_group_name_H-M 'P 1'
_cell_length_a      7.79284715
_cell_length_b      6.07178421
_cell_length_c     13.57801631
_cell_angle_alpha  101.257176
_cell_angle_beta  112.555494
_cell_angle_gamma   85.774841

loop_
_atom_site_label
_atom_site_fract_x
_atom_site_fract_y
_atom_site_fract_z
C1  1.190899712545E-01  4.620633932549E-02  3.906787432585E-01
C2 -1.190899712545E-01 -4.620633932549E-02 -3.906787432585E-01
C3  1.433658793532E-01  1.674082408172E-01  3.210386963105E-01
C4 -1.433658793532E-01 -1.674082408172E-01 -3.210386963105E-01
C5  8.127075137204E-02  7.966284912888E-02  2.060122195032E-01
C6 -8.127075137204E-02 -7.966284912888E-02 -2.060122195032E-01
C7  1.067200570734E-01  1.983996578700E-01  1.336370707540E-01
C8 -1.067200570734E-01 -1.983996578700E-01 -1.336370707540E-01
C9  4.569545620937E-02  1.096324222217E-01  2.066578500968E-02
C10 -4.569545620937E-02 -1.096324222217E-01 -2.066578500968E-02
C11  7.133951069717E-02  2.281673330600E-01 -5.322957832942E-02
C12 -7.133951069717E-02 -2.281673330600E-01  5.322957832942E-02
C13 -9.181832066779E-03 -1.398483069794E-01  1.647564101104E-01
C14  9.181832066779E-03  1.398483069794E-01 -1.647564101104E-01
C15 -3.115017269458E-02 -2.615861296396E-01  2.406890281655E-01
C16  3.115017269458E-02  2.615861296396E-01 -2.406890281655E-01
C17  3.159350764352E-02 -1.723417382136E-01  3.500122882530E-01
C18 -3.159350764352E-02  1.723417382136E-01 -3.500122882530E-01
H19  1.677025876906E-01  1.155960550848E-01  4.789812361164E-01
H20 -1.677025876906E-01 -1.155960550848E-01 -4.789812361164E-01
H21  2.086836007529E-01  3.367237751793E-01  3.515589505270E-01
H22 -2.086836007529E-01 -3.367237751793E-01 -3.515589505270E-01
H23  1.744483093915E-01  3.663841052041E-01  1.649591312646E-01
H24 -1.744483093915E-01 -3.663841052041E-01 -1.649591312646E-01
H25  1.411062480349E-01  3.949961383043E-01 -2.177157346163E-02
H26 -1.411062480349E-01 -3.949961383043E-01  2.177157346163E-02
H27 -9.855506293141E-02 -4.293661531472E-01  2.089547879022E-01
H28  9.855506293141E-02  4.293661531472E-01 -2.089547879022E-01
H29  1.323519319566E-02 -2.685253856069E-01  4.071801034679E-01
H30 -1.323519319566E-02  2.685253856069E-01 -4.071801034679E-01
C31 -4.520486794805E-01 -4.241797355524E-01  3.805605535254E-01
C32  4.520486794805E-01  4.241797355524E-01 -3.805605535254E-01
C33  4.875774158660E-01 -3.077098672701E-01  2.957393758377E-01
C34 -4.875774158660E-01  3.077098672701E-01 -2.957393758377E-01
C35 -4.961687850729E-01 -4.050858806533E-01  1.937751792065E-01
C36  4.961687850729E-01  4.050858806533E-01 -1.937751792065E-01
C37  4.446811331517E-01 -2.900459712642E-01  1.062193633450E-01
C38 -4.446811331517E-01  2.900459712642E-01 -1.062193633450E-01
C39  4.615198151510E-01 -3.870757096566E-01  6.111573974085E-03
C40 -4.615198151510E-01  3.870757096566E-01 -6.111573974085E-03
C41  4.014769893411E-01 -2.722274285897E-01 -8.307692576943E-02
C42 -4.014769893411E-01  2.722274285897E-01  8.307692576943E-02
C43 -4.174512687309E-01  3.699495164830E-01  1.819014010258E-01
C44  4.174512687309E-01 -3.699495164830E-01 -1.819014010258E-01
C45 -3.548088849412E-01  2.551060495648E-01  2.733445193912E-01
C46  3.548088849412E-01 -2.551060495648E-01 -2.733445193912E-01
C47 -3.727369765746E-01  3.540056078879E-01  3.691902746725E-01
C48  3.727369765746E-01 -3.540056078879E-01 -3.691902746725E-01
H49 -4.642657027696E-01 -3.470906087630E-01  4.587350759111E-01
H50  4.642657027696E-01  3.470906087630E-01 -4.587350759111E-01
H51  4.260810782422E-01 -1.373181927467E-01  3.047088273669E-01
H52 -4.260810782422E-01  1.373181927467E-01 -3.047088273669E-01
H53  3.832891379999E-01 -1.193410995084E-01  1.150004523287E-01
H54 -3.832891379999E-01  1.193410995084E-01 -1.150004523287E-01
H55  3.402761633300E-01 -1.015336749221E-01 -7.406063195739E-02
H56 -3.402761633300E-01  1.015336749221E-01  7.406063195739E-02
H57 -2.914018442560E-01  8.583368522149E-02  2.648286536614E-01
H58  2.914018442560E-01 -8.583368522149E-02 -2.648286536614E-01
H59 -3.239761750479E-01  2.645609405241E-01  4.391293509388E-01
H60  3.239761750479E-01 -2.645609405241E-01 -4.391293509388E-01


#===END

data_OPT_STEP_13

_symmetry_space_group_name_H-M 'P 1'
_cell_length_a      7.81794504
_cell_length_b      6.10192933
_cell_length_c     13.59299726
_cell_angle_alpha  101.453860
_cell_angle_beta  112.363226
_cell_angle_gamma   85.963465

loop_
_atom_site_label
_atom_site_fract_x
_atom_site_fract_y
_atom_site_fract_z
C1  1.203855107591E-01  4.443525798131E-02  3.901910064919E-01
C2 -1.203855107591E-01 -4.443525798131E-02 -3.901910064919E-01
C3  1.435965195858E-01  1.662620389409E-01  3.207859981117E-01
C4 -1.435965195858E-01 -1.662620389409E-01 -3.207859981117E-01
C5  8.219119122256E-02  7.855138219853E-02  2.058632124122E-01
C6 -8.219119122256E-02 -7.855138219853E-02 -2.058632124122E-01
C7  1.068255876766E-01  1.975228768957E-01  1.337013221758E-01
C8 -1.068255876766E-01 -1.975228768957E-01 -1.337013221758E-01
C9  4.500614325109E-02  1.096632540869E-01  2.072619072677E-02
C10 -4.500614325109E-02 -1.096632540869E-01 -2.072619072677E-02
C11  6.889225567578E-02  2.289989178285E-01 -5.301609592350E-02
C12 -6.889225567578E-02 -2.289989178285E-01  5.301609592350E-02
C13 -7.163659119739E-03 -1.407855390484E-01  1.644344795514E-01
C14  7.163659119739E-03  1.407855390484E-01 -1.644344795514E-01
C15 -2.918156932871E-02 -2.623945159005E-01  2.400570873873E-01
C16  2.918156932871E-02  2.623945159005E-01 -2.400570873873E-01
C17  3.352243902434E-02 -1.736990482802E-01  3.492951790822E-01
C18 -3.352243902434E-02  1.736990482802E-01 -3.492951790822E-01
H19  1.687419173867E-01  1.133057224650E-01  4.783995648738E-01
H20 -1.687419173867E-01 -1.133057224650E-01 -4.783995648738E-01
H21  2.082681480693E-01  3.354154953785E-01  3.516903687465E-01
H22 -2.082681480693E-01 -3.354154953785E-01 -3.516903687465E-01
H23  1.749132262618E-01  3.647807915282E-01  1.652178425890E-01
H24 -1.749132262618E-01 -3.647807915282E-01 -1.652178425890E-01
H25  1.372090241930E-01  3.961297040948E-01 -2.147612286456E-02
H26 -1.372090241930E-01 -3.961297040948E-01  2.147612286456E-02
H27 -9.680632366923E-02 -4.295765541090E-01  2.080349255075E-01
H28  9.680632366923E-02  4.295765541090E-01 -2.080349255075E-01
H29  1.569972065695E-02 -2.699918039941E-01  4.062148377645E-01
H30 -1.569972065695E-02  2.699918039941E-01 -4.062148377645E-01
C31 -4.524173647495E-01 -4.246019146727E-01  3.801506528781E-01
C32  4.524173647495E-01  4.246019146727E-01 -3.801506528781E-01
C33  4.872060614964E-01 -3.091065803783E-01  2.956568456291E-01
C34 -4.872060614964E-01  3.091065803783E-01 -2.956568456291E-01
C35 -4.978104475256E-01 -4.064909161793E-01  1.933211765999E-01
C36  4.978104475256E-01  4.064909161793E-01 -1.933211765999E-01
C37  4.434814256373E-01 -2.920551439815E-01  1.061946492940E-01
C38 -4.434814256373E-01  2.920551439815E-01 -1.061946492940E-01
C39  4.609916713989E-01 -3.880836051100E-01  6.195658052470E-03
C40 -4.609916713989E-01  3.880836051100E-01 -6.195658052470E-03
C41  4.024715323202E-01 -2.732730397991E-01 -8.236006130879E-02
C42 -4.024715323202E-01  2.732730397991E-01  8.236006130879E-02
C43 -4.193145670146E-01  3.699248365286E-01  1.810324371613E-01
C44  4.193145670146E-01 -3.699248365286E-01 -1.810324371613E-01
C45 -3.573278272659E-01  2.557115953523E-01  2.720047403342E-01
C46  3.573278272659E-01 -2.557115953523E-01 -2.720047403342E-01
C47 -3.739967388048E-01  3.548509325742E-01  3.681791460759E-01
C48  3.739967388048E-01 -3.548509325742E-01 -3.681791460759E-01
H49 -4.639925310469E-01 -3.475617282187E-01  4.585718710240E-01
H50  4.639925310469E-01  3.475617282187E-01 -4.585718710240E-01
H51  4.268507182454E-01 -1.392415898621E-01  3.051379004405E-01
H52 -4.268507182454E-01  1.392415898621E-01 -3.051379004405E-01
H53  3.827182226551E-01 -1.221860460309E-01  1.154600317190E-01
H54 -3.827182226551E-01  1.221860460309E-01 -1.154600317190E-01
H55  3.417457076066E-01 -1.034149928956E-01 -7.303302864287E-02
H56 -3.417457076066E-01  1.034149928956E-01  7.303302864287E-02
H57 -2.954170888769E-01  8.680861886305E-02  2.629245627376E-01
H58  2.954170888769E-01 -8.680861886305E-02 -2.629245627376E-01
H59 -3.252546581041E-01  2.664482748509E-01  4.378356766567E-01
H60  3.252546581041E-01 -2.664482748509E-01 -4.378356766567E-01


#===END

data_OPT_STEP_14

_symmetry_space_group_name_H-M 'P 1'
_cell_length_a      7.81919478
_cell_length_b      6.09352948
_cell_length_c     13.58747412
_cell_angle_alpha  101.312388
_cell_angle_beta  112.464795
_cell_angle_gamma   86.000242

loop_
_atom_site_label
_atom_site_fract_x
_atom_site_fract_y
_atom_site_fract_z
C1  1.203070651798E-01  4.439796880664E-02  3.903888506863E-01
C2 -1.203070651798E-01 -4.439796880664E-02 -3.903888506863E-01
C3  1.434337305955E-01  1.664426541187E-01  3.208679404479E-01
C4 -1.434337305955E-01 -1.664426541187E-01 -3.208679404479E-01
C5  8.218594558340E-02  7.856320464084E-02  2.059283803794E-01
C6 -8.218594558340E-02 -7.856320464084E-02 -2.059283803794E-01
C7  1.066533060793E-01  1.978099593153E-01  1.336393239015E-01
C8 -1.066533060793E-01 -1.978099593153E-01 -1.336393239015E-01
C9  4.491644096918E-02  1.098284758398E-01  2.066190264327E-02
C10 -4.491644096918E-02 -1.098284758398E-01 -2.066190264327E-02
C11  6.856943226492E-02  2.294644782642E-01 -5.322452272756E-02
C12 -6.856943226492E-02 -2.294644782642E-01  5.322452272756E-02
C13 -6.884950390710E-03 -1.411763828900E-01  1.646542993719E-01
C14  6.884950390710E-03  1.411763828900E-01 -1.646542993719E-01
C15 -2.931530595988E-02 -2.626256507184E-01  2.403304576888E-01
C16  2.931530595988E-02  2.626256507184E-01 -2.403304576888E-01
C17  3.324037711901E-02 -1.737939475575E-01  3.495602386010E-01
C18 -3.324037711901E-02  1.737939475575E-01 -3.495602386010E-01
H19  1.686903479097E-01  1.133427473572E-01  4.786390150689E-01
H20 -1.686903479097E-01 -1.133427473572E-01 -4.786390150689E-01
H21  2.083823375544E-01  3.356361191205E-01  3.516187199975E-01
H22 -2.083823375544E-01 -3.356361191205E-01 -3.516187199975E-01
H23  1.747109639872E-01  3.652644647360E-01  1.650772286309E-01
H24 -1.747109639872E-01 -3.652644647360E-01 -1.650772286309E-01
H25  1.370425741073E-01  3.966826934445E-01 -2.176324151331E-02
H26 -1.370425741073E-01 -3.966826934445E-01  2.176324151331E-02
H27 -9.695905052814E-02 -4.299631434336E-01  2.084465178938E-01
H28  9.695905052814E-02  4.299631434336E-01 -2.084465178938E-01
H29  1.531546686410E-02 -2.701480907913E-01  4.065805950999E-01
H30 -1.531546686410E-02  2.701480907913E-01 -4.065805950999E-01
C31 -4.525997186771E-01 -4.247965004118E-01  3.801864687089E-01
C32  4.525997186771E-01  4.247965004118E-01 -3.801864687089E-01
C33  4.871475638772E-01 -3.091496115410E-01  2.954991046055E-01
C34 -4.871475638772E-01  3.091496115410E-01 -2.954991046055E-01
C35 -4.978263746548E-01 -4.065711069320E-01  1.932634019887E-01
C36  4.978263746548E-01  4.065711069320E-01 -1.932634019887E-01
C37  4.436871470232E-01 -2.918270414457E-01  1.059969309993E-01
C38 -4.436871470232E-01  2.918270414457E-01 -1.059969309993E-01
C39  4.609724278320E-01 -3.879884604739E-01  6.045516964314E-03
C40 -4.609724278320E-01  3.879884604739E-01 -6.045516964314E-03
C41  4.026200681824E-01 -2.728766840586E-01 -8.267257565723E-02
C42 -4.026200681824E-01  2.728766840586E-01  8.267257565723E-02
C43 -4.192208814704E-01  3.697140364848E-01  1.813046149359E-01
C44  4.192208814704E-01 -3.697140364848E-01 -1.813046149359E-01
C45 -3.572717799252E-01  2.553405586879E-01  2.724899023857E-01
C46  3.572717799252E-01 -2.553405586879E-01 -2.724899023857E-01
C47 -3.739210293997E-01  3.545818620392E-01  3.685987699712E-01
C48  3.739210293997E-01 -3.545818620392E-01 -3.685987699712E-01
H49 -4.641341745336E-01 -3.476206264129E-01  4.585346544456E-01
H50  4.641341745336E-01  3.476206264129E-01 -4.585346544456E-01
H51  4.266749261821E-01 -1.392049057679E-01  3.047322115610E-01
H52 -4.266749261821E-01  1.392049057679E-01 -3.047322115610E-01
H53  3.830698395345E-01 -1.217340561455E-01  1.150689165580E-01
H54 -3.830698395345E-01  1.217340561455E-01 -1.150689165580E-01
H55  3.420376459196E-01 -1.027888483879E-01 -7.352248338769E-02
H56 -3.420376459196E-01  1.027888483879E-01  7.352248338769E-02
H57 -2.950984948808E-01  8.639258256660E-02  2.637050095100E-01
H58  2.950984948808E-01 -8.639258256660E-02 -2.637050095100E-01
H59 -3.252668734729E-01  2.659587090780E-01  4.384286769149E-01
H60  3.252668734729E-01 -2.659587090780E-01 -4.384286769149E-01


#===END

data_OPT_STEP_15

_symmetry_space_group_name_H-M 'P 1'
_cell_length_a      7.84518889
_cell_length_b      6.08383865
_cell_length_c     13.56765276
_cell_angle_alpha  101.164969
_cell_angle_beta  112.512313
_cell_angle_gamma   86.126396

loop_
_atom_site_label
_atom_site_fract_x
_atom_site_fract_y
_atom_site_fract_z
C1  1.219253295579E-01  4.437608777884E-02  3.911626212616E-01
C2 -1.219253295579E-01 -4.437608777884E-02 -3.911626212616E-01
C3  1.444791866167E-01  1.667413783324E-01  3.213173441749E-01
C4 -1.444791866167E-01 -1.667413783324E-01 -3.213173441749E-01
C5  8.262847605301E-02  7.891828612971E-02  2.061965151407E-01
C6 -8.262847605301E-02 -7.891828612971E-02 -2.061965151407E-01
C7  1.066914924516E-01  1.983094187198E-01  1.335614686288E-01
C8 -1.066914924516E-01 -1.983094187198E-01 -1.335614686288E-01
C9  4.519046273604E-02  1.097248335664E-01  2.056806057061E-02
C10 -4.519046273604E-02 -1.097248335664E-01 -2.056806057061E-02
C11  6.914371582387E-02  2.290501196186E-01 -5.360077095410E-02
C12 -6.914371582387E-02 -2.290501196186E-01  5.360077095410E-02
C13 -6.718604564233E-03 -1.409731453127E-01  1.651440256175E-01
C14  6.718604564233E-03  1.409731453127E-01 -1.651440256175E-01
C15 -2.844734808683E-02 -2.624689381307E-01  2.412180793686E-01
C16  2.844734808683E-02  2.624689381307E-01 -2.412180793686E-01
C17  3.443332404701E-02 -1.735328252179E-01  3.504579071801E-01
C18 -3.443332404701E-02  1.735328252179E-01 -3.504579071801E-01
H19  1.704681056823E-01  1.135711076559E-01  4.796133008679E-01
H20 -1.704681056823E-01 -1.135711076559E-01 -4.796133008679E-01
H21  2.105385259462E-01  3.356628766128E-01  3.516640772260E-01
H22 -2.105385259462E-01 -3.356628766128E-01 -3.516640772260E-01
H23  1.750206225987E-01  3.658497346338E-01  1.648393377990E-01
H24 -1.750206225987E-01 -3.658497346338E-01 -1.648393377990E-01
H25  1.387882469914E-01  3.958208477472E-01 -2.221965075510E-02
H26 -1.387882469914E-01 -3.958208477472E-01  2.221965075510E-02
H27 -9.646095440422E-02 -4.299222855964E-01  2.096642517818E-01
H28  9.646095440422E-02  4.299222855964E-01 -2.096642517818E-01
H29  1.629406280683E-02 -2.696638684557E-01  4.077473145583E-01
H30 -1.629406280683E-02  2.696638684557E-01 -4.077473145583E-01
C31 -4.536513896266E-01 -4.256765239609E-01  3.803923088484E-01
C32  4.536513896266E-01  4.256765239609E-01 -3.803923088484E-01
C33  4.866396943535E-01 -3.100720112281E-01  2.954859787332E-01
C34 -4.866396943535E-01  3.100720112281E-01 -2.954859787332E-01
C35 -4.987319556824E-01 -4.075694015959E-01  1.931030915837E-01
C36  4.987319556824E-01  4.075694015959E-01 -1.931030915837E-01
C37  4.421379633682E-01 -2.930179130360E-01  1.054491270894E-01
C38 -4.421379633682E-01  2.930179130360E-01 -1.054491270894E-01
C39  4.597943261983E-01 -3.885882395907E-01  5.665293015055E-03
C40 -4.597943261983E-01  3.885882395907E-01 -5.665293015055E-03
C41  4.011491616608E-01 -2.734536510304E-01 -8.344699359655E-02
C42 -4.011491616608E-01  2.734536510304E-01  8.344699359655E-02
C43 -4.191072167770E-01  3.694152279624E-01  1.817003611406E-01
C44  4.191072167770E-01 -3.694152279624E-01 -1.817003611406E-01
C45 -3.578115995612E-01  2.547801143711E-01  2.731807485660E-01
C46  3.578115995612E-01 -2.547801143711E-01 -2.731807485660E-01
C47 -3.748471359568E-01  3.540380009736E-01  3.691977000280E-01
C48  3.748471359568E-01 -3.540380009736E-01 -3.691977000280E-01
H49 -4.650513448495E-01 -3.481203759206E-01  4.587894297519E-01
H50  4.650513448495E-01  3.481203759206E-01 -4.587894297519E-01
H51  4.262626196251E-01 -1.401863599792E-01  3.045204458366E-01
H52 -4.262626196251E-01  1.401863599792E-01 -3.045204458366E-01
H53  3.802562735922E-01 -1.236785179270E-01  1.140426231329E-01
H54 -3.802562735922E-01  1.236785179270E-01 -1.140426231329E-01
H55  3.386979467577E-01 -1.043365053531E-01 -7.493168607804E-02
H56 -3.386979467577E-01  1.043365053531E-01  7.493168607804E-02
H57 -2.955091619572E-01  8.582850847861E-02  2.647416109463E-01
H58  2.955091619572E-01 -8.582850847861E-02 -2.647416109463E-01
H59 -3.271069057047E-01  2.647874608497E-01  4.392208810647E-01
H60  3.271069057047E-01 -2.647874608497E-01 -4.392208810647E-01


#===END

data_OPT_STEP_16

_symmetry_space_group_name_H-M 'P 1'
_cell_length_a      7.83874452
_cell_length_b      6.07159403
_cell_length_c     13.56018751
_cell_angle_alpha  100.995311
_cell_angle_beta  112.607906
_cell_angle_gamma   86.171127

loop_
_atom_site_label
_atom_site_fract_x
_atom_site_fract_y
_atom_site_fract_z
C1  1.213475746372E-01  4.410511715844E-02  3.913228986714E-01
C2 -1.213475746372E-01 -4.410511715844E-02 -3.913228986714E-01
C3  1.443630232199E-01  1.665807871659E-01  3.214211152094E-01
C4 -1.443630232199E-01 -1.665807871659E-01 -3.214211152094E-01
C5  8.232400726598E-02  7.888338932338E-02  2.062421785723E-01
C6 -8.232400726598E-02 -7.888338932338E-02 -2.062421785723E-01
C7  1.065674032065E-01  1.985552786078E-01  1.335215749710E-01
C8 -1.065674032065E-01 -1.985552786078E-01 -1.335215749710E-01
C9  4.533651562411E-02  1.098309534392E-01  2.053256206268E-02
C10 -4.533651562411E-02 -1.098309534392E-01 -2.053256206268E-02
C11  6.984400937699E-02  2.291860924175E-01 -5.369861360941E-02
C12 -6.984400937699E-02 -2.291860924175E-01  5.369861360941E-02
C13 -7.460251667258E-03 -1.411360357198E-01  1.652620903072E-01
C14  7.460251667258E-03  1.411360357198E-01 -1.652620903072E-01
C15 -2.956219103244E-02 -2.627547543529E-01  2.414084596600E-01
C16  2.956219103244E-02  2.627547543529E-01 -2.414084596600E-01
C17  3.306578501430E-02 -1.736747974310E-01  3.506396599273E-01
C18 -3.306578501430E-02  1.736747974310E-01 -3.506396599273E-01
H19  1.698991519648E-01  1.133915823730E-01  4.798018003778E-01
H20 -1.698991519648E-01 -1.133915823730E-01 -4.798018003778E-01
H21  2.106154301826E-01  3.357046047730E-01  3.515857144040E-01
H22 -2.106154301826E-01 -3.357046047730E-01 -3.515857144040E-01
H23  1.749100577455E-01  3.663765599527E-01  1.647079999181E-01
H24 -1.749100577455E-01 -3.663765599527E-01 -1.647079999181E-01
H25  1.396032534020E-01  3.961776051138E-01 -2.239781969095E-02
H26 -1.396032534020E-01 -3.961776051138E-01  2.239781969095E-02
H27 -9.756741633199E-02 -4.304512161590E-01  2.100109400760E-01
H28  9.756741633199E-02  4.304512161590E-01 -2.100109400760E-01
H29  1.428013332158E-02 -2.696879354806E-01  4.079736613307E-01
H30 -1.428013332158E-02  2.696879354806E-01 -4.079736613307E-01
C31 -4.537058258003E-01 -4.258341333887E-01  3.805357878610E-01
C32  4.537058258003E-01  4.258341333887E-01 -3.805357878610E-01
C33  4.873879538177E-01 -3.095168528700E-01  2.955604886544E-01
C34 -4.873879538177E-01  3.095168528700E-01 -2.955604886544E-01
C35 -4.983722667789E-01 -4.073510944929E-01  1.931640169966E-01
C36  4.983722667789E-01  4.073510944929E-01 -1.931640169966E-01
C37  4.434138883197E-01 -2.920196124413E-01  1.054855790169E-01
C38 -4.434138883197E-01  2.920196124413E-01 -1.054855790169E-01
C39  4.605624024445E-01 -3.880178873409E-01  5.673837898003E-03
C40 -4.605624024445E-01  3.880178873409E-01 -5.673837898003E-03
C41  4.028304802737E-01 -2.720720809990E-01 -8.346930148698E-02
C42 -4.028304802737E-01  2.720720809990E-01  8.346930148698E-02
C43 -4.203294720822E-01  3.684341078064E-01  1.817351333573E-01
C44  4.203294720822E-01 -3.684341078064E-01 -1.817351333573E-01
C45 -3.601292114395E-01  2.530042384584E-01  2.732418935181E-01
C46  3.601292114395E-01 -2.530042384584E-01 -2.732418935181E-01
C47 -3.765943899247E-01  3.527113851510E-01  3.693123995625E-01
C48  3.765943899247E-01 -3.527113851510E-01 -3.693123995625E-01
H49 -4.651742822443E-01 -3.481223882693E-01  4.588467763115E-01
H50  4.651742822443E-01  3.481223882693E-01 -4.588467763115E-01
H51  4.280916753218E-01 -1.388288297495E-01  3.045986292768E-01
H52 -4.280916753218E-01  1.388288297495E-01 -3.045986292768E-01
H53  3.831210539142E-01 -1.216014583174E-01  1.141929342041E-01
H54 -3.831210539142E-01  1.216014583174E-01 -1.141929342041E-01
H55  3.418157444384E-01 -1.019585653642E-01 -7.487004355771E-02
H56 -3.418157444384E-01  1.019585653642E-01  7.487004355771E-02
H57 -2.997524669335E-01  8.278483680721E-02  2.646265882502E-01
H58  2.997524669335E-01 -8.278483680721E-02 -2.646265882502E-01
H59 -3.300977410409E-01  2.625599949334E-01  4.392565411723E-01
H60  3.300977410409E-01 -2.625599949334E-01 -4.392565411723E-01


#===END

data_OPT_STEP_17

_symmetry_space_group_name_H-M 'P 1'
_cell_length_a      7.83860883
_cell_length_b      6.06861603
_cell_length_c     13.55724261
_cell_angle_alpha  100.954912
_cell_angle_beta  112.629172
_cell_angle_gamma   86.158122

loop_
_atom_site_label
_atom_site_fract_x
_atom_site_fract_y
_atom_site_fract_z
C1  1.214884141426E-01  4.392420621146E-02  3.914232366358E-01
C2 -1.214884141426E-01 -4.392420621146E-02 -3.914232366358E-01
C3  1.446428677696E-01  1.663573326281E-01  3.214931010010E-01
C4 -1.446428677696E-01 -1.663573326281E-01 -3.214931010010E-01
C5  8.252318301582E-02  7.869568480550E-02  2.062903441521E-01
C6 -8.252318301582E-02 -7.869568480550E-02 -2.062903441521E-01
C7  1.067345298712E-01  1.984427586465E-01  1.335295048453E-01
C8 -1.067345298712E-01 -1.984427586465E-01 -1.335295048453E-01
C9  4.528127380373E-02  1.098874884662E-01  2.050752750822E-02
C10 -4.528127380373E-02 -1.098874884662E-01 -2.050752750822E-02
C11  6.962999369990E-02  2.293908613133E-01 -5.378200365081E-02
C12 -6.962999369990E-02 -2.293908613133E-01  5.378200365081E-02
C13 -7.317312453002E-03 -1.413240813572E-01  1.653521769540E-01
C14  7.317312453002E-03  1.413240813572E-01 -1.653521769540E-01
C15 -2.971073875757E-02 -2.627971221847E-01  2.415144912097E-01
C16  2.971073875757E-02  2.627971221847E-01 -2.415144912097E-01
C17  3.286650103651E-02 -1.736853848236E-01  3.507536224949E-01
C18 -3.286650103651E-02  1.736853848236E-01 -3.507536224949E-01
H19  1.702725049939E-01  1.131060694896E-01  4.799210750410E-01
H20 -1.702725049939E-01 -1.131060694896E-01 -4.799210750410E-01
H21  2.108577094916E-01  3.355293172620E-01  3.515691044539E-01
H22 -2.108577094916E-01 -3.355293172620E-01 -3.515691044539E-01
H23  1.751512958908E-01  3.662407403805E-01  1.646805127659E-01
H24 -1.751512958908E-01 -3.662407403805E-01 -1.646805127659E-01
H25  1.391156173542E-01  3.965608329960E-01 -2.253846399029E-02
H26 -1.391156173542E-01 -3.965608329960E-01  2.253846399029E-02
H27 -9.776534013770E-02 -4.304758133101E-01  2.101750961090E-01
H28  9.776534013770E-02  4.304758133101E-01 -2.101750961090E-01
H29  1.405071269506E-02 -2.696914707192E-01  4.081184098929E-01
H30 -1.405071269506E-02  2.696914707192E-01 -4.081184098929E-01
C31 -4.537064183739E-01 -4.258926988929E-01  3.806252797370E-01
C32  4.537064183739E-01  4.258926988929E-01 -3.806252797370E-01
C33  4.870097203452E-01 -3.097167232281E-01  2.954937252374E-01
C34 -4.870097203452E-01  3.097167232281E-01 -2.954937252374E-01
C35 -4.981863146700E-01 -4.072732120976E-01  1.932288320023E-01
C36  4.981863146700E-01  4.072732120976E-01 -1.932288320023E-01
C37  4.433275377249E-01 -2.919991737728E-01  1.054269207504E-01
C38 -4.433275377249E-01  2.919991737728E-01 -1.054269207504E-01
C39  4.604742110258E-01 -3.879997604026E-01  5.618836689874E-03
C40 -4.604742110258E-01  3.879997604026E-01 -5.618836689874E-03
C41  4.023588757404E-01 -2.721774488037E-01 -8.366657121566E-02
C42 -4.023588757404E-01  2.721774488037E-01  8.366657121566E-02
C43 -4.196449948236E-01  3.686660744673E-01  1.819768235352E-01
C44  4.196449948236E-01 -3.686660744673E-01 -1.819768235352E-01
C45 -3.592622196849E-01  2.532842991940E-01  2.736010591264E-01
C46  3.592622196849E-01 -2.532842991940E-01 -2.736010591264E-01
C47 -3.758882009477E-01  3.528708866377E-01  3.696258177097E-01
C48  3.758882009477E-01 -3.528708866377E-01 -3.696258177097E-01
H49 -4.653456618451E-01 -3.481644757015E-01  4.588895557637E-01
H50  4.653456618451E-01  3.481644757015E-01 -4.588895557637E-01
H51  4.272593400448E-01 -1.391924453398E-01  3.043811489254E-01
H52 -4.272593400448E-01  1.391924453398E-01 -3.043811489254E-01
H53  3.829322474521E-01 -1.215576923067E-01  1.140634455354E-01
H54 -3.829322474521E-01  1.215576923067E-01 -1.140634455354E-01
H55  3.415205966184E-01 -1.019087538597E-01 -7.507905352150E-02
H56 -3.415205966184E-01  1.019087538597E-01  7.507905352150E-02
H57 -2.986909118301E-01  8.308218990170E-02  2.650762158833E-01
H58  2.986909118301E-01 -8.308218990170E-02 -2.650762158833E-01
H59 -3.291023341716E-01  2.627526335234E-01  4.396734230850E-01
H60  3.291023341716E-01 -2.627526335234E-01 -4.396734230850E-01


#===END

data_OPT_STEP_18

_symmetry_space_group_name_H-M 'P 1'
_cell_length_a      7.85195311
_cell_length_b      6.06919935
_cell_length_c     13.55688872
_cell_angle_alpha  100.895317
_cell_angle_beta  112.688702
_cell_angle_gamma   86.227932

loop_
_atom_site_label
_atom_site_fract_x
_atom_site_fract_y
_atom_site_fract_z
C1  1.211666074558E-01  4.412827597689E-02  3.915177096352E-01
C2 -1.211666074558E-01 -4.412827597689E-02 -3.915177096352E-01
C3  1.440052552981E-01  1.667631989346E-01  3.215236910815E-01
C4 -1.440052552981E-01 -1.667631989346E-01 -3.215236910815E-01
C5  8.257845232369E-02  7.852684129695E-02  2.063525135891E-01
C6 -8.257845232369E-02 -7.852684129695E-02 -2.063525135891E-01
C7  1.072189127671E-01  1.980827603045E-01  1.336372837933E-01
C8 -1.072189127671E-01 -1.980827603045E-01 -1.336372837933E-01
C9  4.504099358125E-02  1.100724740033E-01  2.049063395048E-02
C10 -4.504099358125E-02 -1.100724740033E-01 -2.049063395048E-02
C11  6.905507661913E-02  2.298345165495E-01 -5.385357895999E-02
C12 -6.905507661913E-02 -2.298345165495E-01  5.385357895999E-02
C13 -6.425739391324E-03 -1.419825876658E-01  1.655039980949E-01
C14  6.425739391324E-03  1.419825876658E-01 -1.655039980949E-01
C15 -2.942800730105E-02 -2.632515702295E-01  2.416230714954E-01
C16  2.942800730105E-02  2.632515702295E-01 -2.416230714954E-01
C17  3.285973773747E-02 -1.738861564350E-01  3.509221206823E-01
C18 -3.285973773747E-02  1.738861564350E-01 -3.509221206823E-01
H19  1.707325408900E-01  1.129242922001E-01  4.800337535054E-01
H20 -1.707325408900E-01 -1.129242922001E-01 -4.800337535054E-01
H21  2.098672532955E-01  3.360785168494E-01  3.516138454653E-01
H22 -2.098672532955E-01 -3.360785168494E-01 -3.516138454653E-01
H23  1.760292832915E-01  3.656204414090E-01  1.647962282841E-01
H24 -1.760292832915E-01 -3.656204414090E-01 -1.647962282841E-01
H25  1.390986166089E-01  3.966548028521E-01 -2.254156564188E-02
H26 -1.390986166089E-01 -3.966548028521E-01  2.254156564188E-02
H27 -9.779186250196E-02 -4.306852232788E-01  2.102757872660E-01
H28  9.779186250196E-02  4.306852232788E-01 -2.102757872660E-01
H29  1.479392671570E-02 -2.702610633327E-01  4.083655328515E-01
H30 -1.479392671570E-02  2.702610633327E-01 -4.083655328515E-01
C31 -4.537681838879E-01 -4.263186813076E-01  3.807134530620E-01
C32  4.537681838879E-01  4.263186813076E-01 -3.807134530620E-01
C33  4.870205424973E-01 -3.100035560258E-01  2.954899888841E-01
C34 -4.870205424973E-01  3.100035560258E-01 -2.954899888841E-01
C35 -4.980850780771E-01 -4.073558049212E-01  1.932960068100E-01
C36  4.980850780771E-01  4.073558049212E-01 -1.932960068100E-01
C37  4.437030416982E-01 -2.920264605969E-01  1.054548508302E-01
C38 -4.437030416982E-01  2.920264605969E-01 -1.054548508302E-01
C39  4.610625958898E-01 -3.878418119890E-01  5.690642945826E-03
C40 -4.610625958898E-01  3.878418119890E-01 -5.690642945826E-03
C41  4.028689439504E-01 -2.721744636663E-01 -8.367903024071E-02
C42 -4.028689439504E-01  2.721744636663E-01  8.367903024071E-02
C43 -4.195276540945E-01  3.687900082392E-01  1.821410420820E-01
C44  4.195276540945E-01 -3.687900082392E-01 -1.821410420820E-01
C45 -3.582667610074E-01  2.539281603067E-01  2.740267960058E-01
C46  3.582667610074E-01 -2.539281603067E-01 -2.740267960058E-01
C47 -3.750770042151E-01  3.529605883869E-01  3.699639652480E-01
C48  3.750770042151E-01 -3.529605883869E-01 -3.699639652480E-01
H49 -4.651380822876E-01 -3.485790917127E-01  4.590106468644E-01
H50  4.651380822876E-01  3.485790917127E-01 -4.590106468644E-01
H51  4.276583851596E-01 -1.394154345424E-01  3.043396822992E-01
H52 -4.276583851596E-01  1.394154345424E-01 -3.043396822992E-01
H53  3.831008000673E-01 -1.218589606980E-01  1.139595802305E-01
H54 -3.831008000673E-01  1.218589606980E-01 -1.139595802305E-01
H55  3.426260586807E-01 -1.018232947615E-01 -7.504428432969E-02
H56 -3.426260586807E-01  1.018232947615E-01  7.504428432969E-02
H57 -2.959982728881E-01  8.480378646888E-02  2.659366048576E-01
H58  2.959982728881E-01 -8.480378646888E-02 -2.659366048576E-01
H59 -3.267416910338E-01  2.635314250237E-01  4.403346727955E-01
H60  3.267416910338E-01 -2.635314250237E-01 -4.403346727955E-01


#===END

data_OPT_STEP_19

_symmetry_space_group_name_H-M 'P 1'
_cell_length_a      7.85069396
_cell_length_b      6.06262279
_cell_length_c     13.55673821
_cell_angle_alpha  100.774452
_cell_angle_beta  112.793748
_cell_angle_gamma   86.137127

loop_
_atom_site_label
_atom_site_fract_x
_atom_site_fract_y
_atom_site_fract_z
C1  1.213173093173E-01  4.400550956460E-02  3.916139205457E-01
C2 -1.213173093173E-01 -4.400550956460E-02 -3.916139205457E-01
C3  1.441190783969E-01  1.666348681706E-01  3.215041721990E-01
C4 -1.441190783969E-01 -1.666348681706E-01 -3.215041721990E-01
C5  8.264402132832E-02  7.844701860182E-02  2.063604690606E-01
C6 -8.264402132832E-02 -7.844701860182E-02 -2.063604690606E-01
C7  1.072874522032E-01  1.979751426382E-01  1.335460471919E-01
C8 -1.072874522032E-01 -1.979751426382E-01 -1.335460471919E-01
C9  4.508082542824E-02  1.100238091208E-01  2.042002568881E-02
C10 -4.508082542824E-02 -1.100238091208E-01 -2.042002568881E-02
C11  6.908522073882E-02  2.297720856859E-01 -5.402703431375E-02
C12 -6.908522073882E-02 -2.297720856859E-01  5.402703431375E-02
C13 -6.393344311194E-03 -1.419883195335E-01  1.656576935147E-01
C14  6.393344311194E-03  1.419883195335E-01 -1.656576935147E-01
C15 -2.929321270522E-02 -2.633211384700E-01  2.418962667623E-01
C16  2.929321270522E-02  2.633211384700E-01 -2.418962667623E-01
C17  3.316583724952E-02 -1.740885193058E-01  3.511931142125E-01
C18 -3.316583724952E-02  1.740885193058E-01 -3.511931142125E-01
H19  1.707370108756E-01  1.128712515312E-01  4.800718576462E-01
H20 -1.707370108756E-01 -1.128712515312E-01 -4.800718576462E-01
H21  2.097565823865E-01  3.360322106949E-01  3.514815181591E-01
H22 -2.097565823865E-01 -3.360322106949E-01 -3.514815181591E-01
H23  1.760409060220E-01  3.655037175192E-01  1.645832957761E-01
H24 -1.760409060220E-01 -3.655037175192E-01 -1.645832957761E-01
H25  1.390715123469E-01  3.965876956096E-01 -2.283782861942E-02
H26 -1.390715123469E-01 -3.965876956096E-01  2.283782861942E-02
H27 -9.763622657550E-02 -4.307253767485E-01  2.106496116522E-01
H28  9.763622657550E-02  4.307253767485E-01 -2.106496116522E-01
H29  1.514770685824E-02 -2.704758198395E-01  4.087267111944E-01
H30 -1.514770685824E-02  2.704758198395E-01 -4.087267111944E-01
C31 -4.536753376816E-01 -4.261645777869E-01  3.807161843196E-01
C32  4.536753376816E-01  4.261645777869E-01 -3.807161843196E-01
C33  4.869016103626E-01 -3.096807367546E-01  2.952774099063E-01
C34 -4.869016103626E-01  3.096807367546E-01 -2.952774099063E-01
C35 -4.983248025330E-01 -4.072897774903E-01  1.931719372951E-01
C36  4.983248025330E-01  4.072897774903E-01 -1.931719372951E-01
C37  4.433364302340E-01 -2.918174303323E-01  1.051334124354E-01
C38 -4.433364302340E-01  2.918174303323E-01 -1.051334124354E-01
C39  4.608690191935E-01 -3.877384979507E-01  5.500742080222E-03
C40 -4.608690191935E-01  3.877384979507E-01 -5.500742080222E-03
C41  4.025507249565E-01 -2.719491470625E-01 -8.406029130055E-02
C42 -4.025507249565E-01  2.719491470625E-01  8.406029130055E-02
C43 -4.195438890410E-01  3.685503612863E-01  1.823481332626E-01
C44  4.195438890410E-01 -3.685503612863E-01 -1.823481332626E-01
C45 -3.579670800447E-01  2.536521583815E-01  2.744496629879E-01
C46  3.579670800447E-01 -2.536521583815E-01 -2.744496629879E-01
C47 -3.748353326594E-01  3.527733354736E-01  3.702793605174E-01
C48  3.748353326594E-01 -3.527733354736E-01 -3.702793605174E-01
H49 -4.652439776661E-01 -3.484196002606E-01  4.588836734885E-01
H50  4.652439776661E-01  3.484196002606E-01 -4.588836734885E-01
H51  4.274205125465E-01 -1.388432634855E-01  3.038827318876E-01
H52 -4.274205125465E-01  1.388432634855E-01 -3.038827318876E-01
H53  3.826137470372E-01 -1.213996258899E-01  1.133955459800E-01
H54 -3.826137470372E-01  1.213996258899E-01 -1.133955459800E-01
H55  3.419293329574E-01 -1.015042595089E-01 -7.572287914430E-02
H56 -3.419293329574E-01  1.015042595089E-01  7.572287914430E-02
H57 -2.954925656373E-01  8.434319106526E-02  2.666131491535E-01
H58  2.954925656373E-01 -8.434319106526E-02 -2.666131491535E-01
H59 -3.263626283542E-01  2.632598349318E-01  4.407868290561E-01
H60  3.263626283542E-01 -2.632598349318E-01 -4.407868290561E-01


#===END

data_OPT_STEP_20

_symmetry_space_group_name_H-M 'P 1'
_cell_length_a      7.86715507
_cell_length_b      6.06086604
_cell_length_c     13.55533320
_cell_angle_alpha  100.730999
_cell_angle_beta  112.808682
_cell_angle_gamma   86.212079

loop_
_atom_site_label
_atom_site_fract_x
_atom_site_fract_y
_atom_site_fract_z
C1  1.212119230598E-01  4.376127821227E-02  3.916546263103E-01
C2 -1.212119230598E-01 -4.376127821227E-02 -3.916546263103E-01
C3  1.443478043925E-01  1.662423228000E-01  3.215529779475E-01
C4 -1.443478043925E-01 -1.662423228000E-01 -3.215529779475E-01
C5  8.250354205430E-02  7.834571645619E-02  2.063924571167E-01
C6 -8.250354205430E-02 -7.834571645619E-02 -2.063924571167E-01
C7  1.069982191748E-01  1.981150470792E-01  1.335509665153E-01
C8 -1.069982191748E-01 -1.981150470792E-01 -1.335509665153E-01
C9  4.523373757629E-02  1.099598705928E-01  2.044717564591E-02
C10 -4.523373757629E-02 -1.099598705928E-01 -2.044717564591E-02
C11  6.862584934228E-02  2.302960874904E-01 -5.405194086055E-02
C12 -6.862584934228E-02 -2.302960874904E-01  5.405194086055E-02
C13 -6.852286564418E-03 -1.419788183805E-01  1.656304747909E-01
C14  6.852286564418E-03  1.419788183805E-01 -1.656304747909E-01
C15 -2.984545332350E-02 -2.634259915473E-01  2.418750326962E-01
C16  2.984545332350E-02  2.634259915473E-01 -2.418750326962E-01
C17  3.282861755446E-02 -1.743354455035E-01  3.512124891560E-01
C18 -3.282861755446E-02  1.743354455035E-01 -3.512124891560E-01
H19  1.697791624904E-01  1.131489750247E-01  4.800446049139E-01
H20 -1.697791624904E-01 -1.131489750247E-01 -4.800446049139E-01
H21  2.098051668860E-01  3.357862007507E-01  3.515847127710E-01
H22 -2.098051668860E-01 -3.357862007507E-01 -3.515847127710E-01
H23  1.758537386983E-01  3.656459729628E-01  1.646020511359E-01
H24 -1.758537386983E-01 -3.656459729628E-01 -1.646020511359E-01
H25  1.371359022771E-01  3.980084862412E-01 -2.296458297518E-02
H26 -1.371359022771E-01 -3.980084862412E-01  2.296458297518E-02
H27 -9.841142650906E-02 -4.307601182368E-01  2.105966258933E-01
H28  9.841142650906E-02  4.307601182368E-01 -2.105966258933E-01
H29  1.409921660309E-02 -2.703593480435E-01  4.087214548586E-01
H30 -1.409921660309E-02  2.703593480435E-01 -4.087214548586E-01
C31 -4.535254994754E-01 -4.260299501198E-01  3.808083770006E-01
C32  4.535254994754E-01  4.260299501198E-01 -3.808083770006E-01
C33  4.864692066698E-01 -3.099620534371E-01  2.951688145548E-01
C34 -4.864692066698E-01  3.099620534371E-01 -2.951688145548E-01
C35 -4.980480110125E-01 -4.070900366411E-01  1.932515115864E-01
C36  4.980480110125E-01  4.070900366411E-01 -1.932515115864E-01
C37  4.435763142135E-01 -2.917328389897E-01  1.051307979062E-01
C38 -4.435763142135E-01  2.917328389897E-01 -1.051307979062E-01
C39  4.604404377380E-01 -3.880335042592E-01  5.342619979120E-03
C40 -4.604404377380E-01  3.880335042592E-01 -5.342619979120E-03
C41  4.018669778797E-01 -2.725210341462E-01 -8.435722545198E-02
C42 -4.018669778797E-01  2.725210341462E-01  8.435722545198E-02
C43 -4.187421824831E-01  3.691444111391E-01  1.826539921733E-01
C44  4.187421824831E-01 -3.691444111391E-01 -1.826539921733E-01
C45 -3.570970152804E-01  2.543046285888E-01  2.748313066065E-01
C46  3.570970152804E-01 -2.543046285888E-01 -2.748313066065E-01
C47 -3.741625263179E-01  3.532775414166E-01  3.705782896280E-01
C48  3.741625263179E-01 -3.532775414166E-01 -3.705782896280E-01
H49 -4.651214480525E-01 -3.483821219883E-01  4.589615128910E-01
H50  4.651214480525E-01  3.483821219883E-01 -4.589615128910E-01
H51  4.255712160012E-01 -1.399069621569E-01  3.033508632349E-01
H52 -4.255712160012E-01  1.399069621569E-01 -3.033508632349E-01
H53  3.829328999863E-01 -1.213530050338E-01  1.133169364044E-01
H54 -3.829328999863E-01  1.213530050338E-01 -1.133169364044E-01
H55  3.408420797949E-01 -1.023525999145E-01 -7.622019600582E-02
H56 -3.408420797949E-01  1.023525999145E-01  7.622019600582E-02
H57 -2.943996674692E-01  8.521964182626E-02  2.671344073237E-01
H58  2.943996674692E-01 -8.521964182626E-02 -2.671344073237E-01
H59 -3.254753342607E-01  2.639278222848E-01  4.411873826629E-01
H60  3.254753342607E-01 -2.639278222848E-01 -4.411873826629E-01


#===END

data_OPT_STEP_21

_symmetry_space_group_name_H-M 'P 1'
_cell_length_a      7.88209015
_cell_length_b      6.05089930
_cell_length_c     13.55038321
_cell_angle_alpha  100.669938
_cell_angle_beta  112.795395
_cell_angle_gamma   86.243772

loop_
_atom_site_label
_atom_site_fract_x
_atom_site_fract_y
_atom_site_fract_z
C1  1.215258732478E-01  4.319836106974E-02  3.917667424031E-01
C2 -1.215258732478E-01 -4.319836106974E-02 -3.917667424031E-01
C3  1.448934080384E-01  1.657450456481E-01  3.216243303543E-01
C4 -1.448934080384E-01 -1.657450456481E-01 -3.216243303543E-01
C5  8.306831297798E-02  7.791290681142E-02  2.064714555043E-01
C6 -8.306831297798E-02 -7.791290681142E-02 -2.064714555043E-01
C7  1.072923266129E-01  1.980320248505E-01  1.335239310686E-01
C8 -1.072923266129E-01 -1.980320248505E-01 -1.335239310686E-01
C9  4.522385160882E-02  1.100552422003E-01  2.040732632680E-02
C10 -4.522385160882E-02 -1.100552422003E-01 -2.040732632680E-02
C11  6.912703455396E-02  2.302699958629E-01 -5.410794767559E-02
C12 -6.912703455396E-02 -2.302699958629E-01  5.410794767559E-02
C13 -7.110442103719E-03 -1.421339914303E-01  1.656898860097E-01
C14  7.110442103719E-03  1.421339914303E-01 -1.656898860097E-01
C15 -3.005206533804E-02 -2.637249336072E-01  2.420230159701E-01
C16  3.005206533804E-02  2.637249336072E-01 -2.420230159701E-01
C17  3.303234755526E-02 -1.749540839721E-01  3.513563427247E-01
C18 -3.303234755526E-02  1.749540839721E-01 -3.513563427247E-01
H19  1.704450683390E-01  1.122800967718E-01  4.802231455702E-01
H20 -1.704450683390E-01 -1.122800967718E-01 -4.802231455702E-01
H21  2.106258544744E-01  3.353263949745E-01  3.516210700441E-01
H22 -2.106258544744E-01 -3.353263949745E-01 -3.516210700441E-01
H23  1.759915403759E-01  3.658344874039E-01  1.645164558402E-01
H24 -1.759915403759E-01 -3.658344874039E-01 -1.645164558402E-01
H25  1.382311574677E-01  3.978236593656E-01 -2.301287794630E-02
H26 -1.382311574677E-01 -3.978236593656E-01  2.301287794630E-02
H27 -9.853657719290E-02 -4.312868222974E-01  2.108018988478E-01
H28  9.853657719290E-02  4.312868222974E-01 -2.108018988478E-01
H29  1.456184174705E-02 -2.713390106307E-01  4.089326054406E-01
H30 -1.456184174705E-02  2.713390106307E-01 -4.089326054406E-01
C31 -4.532661566691E-01 -4.256871352317E-01  3.809377672968E-01
C32  4.532661566691E-01  4.256871352317E-01 -3.809377672968E-01
C33  4.862738676231E-01 -3.098918764437E-01  2.951044884124E-01
C34 -4.862738676231E-01  3.098918764437E-01 -2.951044884124E-01
C35 -4.981854609096E-01 -4.070936819763E-01  1.932054812830E-01
C36  4.981854609096E-01  4.070936819763E-01 -1.932054812830E-01
C37  4.426856104699E-01 -2.920534513911E-01  1.048160394589E-01
C38 -4.426856104699E-01  2.920534513911E-01 -1.048160394589E-01
C39  4.603216251475E-01 -3.879693068459E-01  5.257180356309E-03
C40 -4.603216251475E-01  3.879693068459E-01 -5.257180356309E-03
C41  4.019431892200E-01 -2.721894387061E-01 -8.450420080751E-02
C42 -4.019431892200E-01  2.721894387061E-01  8.450420080751E-02
C43 -4.184771385976E-01  3.691293273342E-01  1.828464269709E-01
C44  4.184771385976E-01 -3.691293273342E-01 -1.828464269709E-01
C45 -3.567933639874E-01  2.542405662633E-01  2.751536079678E-01
C46  3.567933639874E-01 -2.542405662633E-01 -2.751536079678E-01
C47 -3.736841495832E-01  3.535812436239E-01  3.709217800752E-01
C48  3.736841495832E-01 -3.535812436239E-01 -3.709217800752E-01
H49 -4.651085244222E-01 -3.480372372137E-01  4.590292250268E-01
H50  4.651085244222E-01  3.480372372137E-01 -4.590292250268E-01
H51  4.249234373565E-01 -1.399015063888E-01  3.030816901377E-01
H52 -4.249234373565E-01  1.399015063888E-01 -3.030816901377E-01
H53  3.811781519551E-01 -1.219387911025E-01  1.126945202762E-01
H54 -3.811781519551E-01  1.219387911025E-01 -1.126945202762E-01
H55  3.410518290837E-01 -1.017398430047E-01 -7.645787318736E-02
H56 -3.410518290837E-01  1.017398430047E-01  7.645787318736E-02
H57 -2.948527268049E-01  8.457653301400E-02  2.674241429496E-01
H58  2.948527268049E-01 -8.457653301400E-02 -2.674241429496E-01
H59 -3.258141970966E-01  2.638417293270E-01  4.414758933449E-01
H60  3.258141970966E-01 -2.638417293270E-01 -4.414758933449E-01


#===END

data_OPT_STEP_22

_symmetry_space_group_name_H-M 'P 1'
_cell_length_a      7.88790622
_cell_length_b      6.04451290
_cell_length_c     13.54454683
_cell_angle_alpha  100.771671
_cell_angle_beta  112.729931
_cell_angle_gamma   86.166697

loop_
_atom_site_label
_atom_site_fract_x
_atom_site_fract_y
_atom_site_fract_z
C1  1.209846696118E-01  4.424209480976E-02  3.918814461133E-01
C2 -1.209846696118E-01 -4.424209480976E-02 -3.918814461133E-01
C3  1.447761265385E-01  1.664267148841E-01  3.217476003514E-01
C4 -1.447761265385E-01 -1.664267148841E-01 -3.217476003514E-01
C5  8.293801044644E-02  7.838646743634E-02  2.065413349484E-01
C6 -8.293801044644E-02 -7.838646743634E-02 -2.065413349484E-01
C7  1.074449124192E-01  1.982404243965E-01  1.335866578389E-01
C8 -1.074449124192E-01 -1.982404243965E-01 -1.335866578389E-01
C9  4.511851339799E-02  1.101963530565E-01  2.040169099145E-02
C10 -4.511851339799E-02 -1.101963530565E-01 -2.040169099145E-02
C11  6.924374511504E-02  2.301671747684E-01 -5.413348853244E-02
C12 -6.924374511504E-02 -2.301671747684E-01  5.413348853244E-02
C13 -7.183918362138E-03 -1.418378382531E-01  1.657539673326E-01
C14  7.183918362138E-03  1.418378382531E-01 -1.657539673326E-01
C15 -3.053504642107E-02 -2.630078572352E-01  2.420787717127E-01
C16  3.053504642107E-02  2.630078572352E-01 -2.420787717127E-01
C17  3.217889608151E-02 -1.738124602660E-01  3.514121424715E-01
C18 -3.217889608151E-02  1.738124602660E-01 -3.514121424715E-01
H19  1.701637936551E-01  1.133457115038E-01  4.804120743491E-01
H20 -1.701637936551E-01 -1.133457115038E-01 -4.804120743491E-01
H21  2.110621210953E-01  3.357963418149E-01  3.517548639331E-01
H22 -2.110621210953E-01 -3.357963418149E-01 -3.517548639331E-01
H23  1.763214407284E-01  3.660243619493E-01  1.646133587242E-01
H24 -1.763214407284E-01 -3.660243619493E-01 -1.646133587242E-01
H25  1.385930431093E-01  3.976867527787E-01 -2.300418996750E-02
H26 -1.385930431093E-01 -3.976867527787E-01  2.300418996750E-02
H27 -9.912608571367E-02 -4.306153448816E-01  2.108453867198E-01
H28  9.912608571367E-02  4.306153448816E-01 -2.108453867198E-01
H29  1.358978252514E-02 -2.701027307314E-01  4.089865214412E-01
H30 -1.358978252514E-02  2.701027307314E-01 -4.089865214412E-01
C31 -4.531259343967E-01 -4.255633577835E-01  3.811606245682E-01
C32  4.531259343967E-01  4.255633577835E-01 -3.811606245682E-01
C33  4.866553782675E-01 -3.094538577227E-01  2.954848313850E-01
C34 -4.866553782675E-01  3.094538577227E-01 -2.954848313850E-01
C35 -4.979191287620E-01 -4.068656654942E-01  1.934117974272E-01
C36  4.979191287620E-01  4.068656654942E-01 -1.934117974272E-01
C37  4.427895051786E-01 -2.917217842985E-01  1.050658203091E-01
C38 -4.427895051786E-01  2.917217842985E-01 -1.050658203091E-01
C39  4.601319346938E-01 -3.878871904640E-01  5.321235372051E-03
C40 -4.601319346938E-01  3.878871904640E-01 -5.321235372051E-03
C41  4.008508351298E-01 -2.724337981088E-01 -8.456020782636E-02
C42 -4.008508351298E-01  2.724337981088E-01  8.456020782636E-02
C43 -4.179986843096E-01  3.691586371834E-01  1.828695799207E-01
C44  4.179986843096E-01 -3.691586371834E-01 -1.828695799207E-01
C45 -3.566397473929E-01  2.539323347343E-01  2.750493058980E-01
C46  3.566397473929E-01 -2.539323347343E-01 -2.750493058980E-01
C47 -3.738551506746E-01  3.532549526919E-01  3.708493702836E-01
C48  3.738551506746E-01 -3.532549526919E-01 -3.708493702836E-01
H49 -4.650945948617E-01 -3.478918078847E-01  4.593257513379E-01
H50  4.650945948617E-01  3.478918078847E-01 -4.593257513379E-01
H51  4.259237870758E-01 -1.389366634721E-01  3.037803592852E-01
H52 -4.259237870758E-01  1.389366634721E-01 -3.037803592852E-01
H53  3.815992944707E-01 -1.212075523971E-01  1.131744512320E-01
H54 -3.815992944707E-01  1.212075523971E-01 -1.131744512320E-01
H55  3.391986251863E-01 -1.021457139972E-01 -7.651804501333E-02
H56 -3.391986251863E-01  1.021457139972E-01  7.651804501333E-02
H57 -2.946862549032E-01  8.403409825625E-02  2.671463206184E-01
H58  2.946862549032E-01 -8.403409825625E-02 -2.671463206184E-01
H59 -3.266929397699E-01  2.629975350416E-01  4.411949554249E-01
H60  3.266929397699E-01 -2.629975350416E-01 -4.411949554249E-01


#===END

data_OPT_STEP_23

_symmetry_space_group_name_H-M 'P 1'
_cell_length_a      7.89230685
_cell_length_b      6.04092942
_cell_length_c     13.53780556
_cell_angle_alpha  100.678103
_cell_angle_beta  112.749674
_cell_angle_gamma   86.258905

loop_
_atom_site_label
_atom_site_fract_x
_atom_site_fract_y
_atom_site_fract_z
C1  1.220747001873E-01  4.240765588085E-02  3.920945360557E-01
C2 -1.220747001873E-01 -4.240765588085E-02 -3.920945360557E-01
C3  1.451257147941E-01  1.655135803113E-01  3.218900304791E-01
C4 -1.451257147941E-01 -1.655135803113E-01 -3.218900304791E-01
C5  8.279907820826E-02  7.802662116736E-02  2.065666873204E-01
C6 -8.279907820826E-02 -7.802662116736E-02 -2.065666873204E-01
C7  1.079217011303E-01  1.978213740893E-01  1.336659685739E-01
C8 -1.079217011303E-01 -1.978213740893E-01 -1.336659685739E-01
C9  4.564014114820E-02  1.099330638218E-01  2.045620019410E-02
C10 -4.564014114820E-02 -1.099330638218E-01 -2.045620019410E-02
C11  7.001617937576E-02  2.300207469062E-01 -5.407609594617E-02
C12 -7.001617937576E-02 -2.300207469062E-01  5.407609594617E-02
C13 -7.140044889287E-03 -1.423812043133E-01  1.657829622471E-01
C14  7.140044889287E-03  1.423812043133E-01 -1.657829622471E-01
C15 -2.982656276607E-02 -2.643467029119E-01  2.422035077572E-01
C16  2.982656276607E-02  2.643467029119E-01 -2.422035077572E-01
C17  3.301368392625E-02 -1.755184807903E-01  3.515603473148E-01
C18 -3.301368392625E-02  1.755184807903E-01 -3.515603473148E-01
H19  1.714534922563E-01  1.111678919881E-01  4.806765799818E-01
H20 -1.714534922563E-01 -1.111678919881E-01 -4.806765799818E-01
H21  2.114856888010E-01  3.349553807179E-01  3.519051042032E-01
H22 -2.114856888010E-01 -3.349553807179E-01 -3.519051042032E-01
H23  1.774326262332E-01  3.653346022540E-01  1.647531301123E-01
H24 -1.774326262332E-01 -3.653346022540E-01 -1.647531301123E-01
H25  1.397529768984E-01  3.974139117559E-01 -2.291224283895E-02
H26 -1.397529768984E-01 -3.974139117559E-01  2.291224283895E-02
H27 -9.887599251583E-02 -4.317466487364E-01  2.108987617417E-01
H28  9.887599251583E-02  4.317466487364E-01 -2.108987617417E-01
H29  1.443678668117E-02 -2.720730266078E-01  4.091206827867E-01
H30 -1.443678668117E-02  2.720730266078E-01 -4.091206827867E-01
C31 -4.535303033793E-01 -4.255621976624E-01  3.812022796692E-01
C32  4.535303033793E-01  4.255621976624E-01 -3.812022796692E-01
C33  4.862390978903E-01 -3.096486064576E-01  2.953602737818E-01
C34 -4.862390978903E-01  3.096486064576E-01 -2.953602737818E-01
C35 -4.982359933653E-01 -4.070369473478E-01  1.933333877273E-01
C36  4.982359933653E-01  4.070369473478E-01 -1.933333877273E-01
C37  4.430606273179E-01 -2.916365029786E-01  1.049610528710E-01
C38 -4.430606273179E-01  2.916365029786E-01 -1.049610528710E-01
C39  4.602920720367E-01 -3.878437223021E-01  5.246140879641E-03
C40 -4.602920720367E-01  3.878437223021E-01 -5.246140879641E-03
C41  4.011363740906E-01 -2.723555350897E-01 -8.476662560959E-02
C42 -4.011363740906E-01  2.723555350897E-01  8.476662560959E-02
C43 -4.186433046359E-01  3.689247514049E-01  1.829340480984E-01
C44  4.186433046359E-01 -3.689247514049E-01 -1.829340480984E-01
C45 -3.571068937635E-01  2.540066294963E-01  2.753376966036E-01
C46  3.571068937635E-01 -2.540066294963E-01 -2.753376966036E-01
C47 -3.739943979540E-01  3.535960188792E-01  3.711881470568E-01
C48  3.739943979540E-01 -3.535960188792E-01 -3.711881470568E-01
H49 -4.655291316367E-01 -3.478500038231E-01  4.593308388864E-01
H50  4.655291316367E-01  3.478500038231E-01 -4.593308388864E-01
H51  4.257483194541E-01 -1.391398939506E-01  3.035696101480E-01
H52 -4.257483194541E-01  1.391398939506E-01 -3.035696101480E-01
H53  3.825698434212E-01 -1.208608404654E-01  1.130717312399E-01
H54 -3.825698434212E-01  1.208608404654E-01 -1.130717312399E-01
H55  3.399514689858E-01 -1.019022486833E-01 -7.678987461817E-02
H56 -3.399514689858E-01  1.019022486833E-01  7.678987461817E-02
H57 -2.948306994672E-01  8.433806939641E-02  2.676746041467E-01
H58  2.948306994672E-01 -8.433806939641E-02 -2.676746041467E-01
H59 -3.257522785850E-01  2.640987520096E-01  4.419247459623E-01
H60  3.257522785850E-01 -2.640987520096E-01 -4.419247459623E-01


#===END

data_OPT_STEP_24

_symmetry_space_group_name_H-M 'P 1'
_cell_length_a      7.89362688
_cell_length_b      6.04002725
_cell_length_c     13.53731596
_cell_angle_alpha  100.696044
_cell_angle_beta  112.744450
_cell_angle_gamma   86.257058

loop_
_atom_site_label
_atom_site_fract_x
_atom_site_fract_y
_atom_site_fract_z
C1  1.218429074899E-01  4.255416295487E-02  3.920985957398E-01
C2 -1.218429074899E-01 -4.255416295487E-02 -3.920985957398E-01
C3  1.450309517506E-01  1.656004493519E-01  3.219233201212E-01
C4 -1.450309517506E-01 -1.656004493519E-01 -3.219233201212E-01
C5  8.271589770119E-02  7.807992323902E-02  2.065828515901E-01
C6 -8.271589770119E-02 -7.807992323902E-02 -2.065828515901E-01
C7  1.078402631362E-01  1.979176438026E-01  1.336988282848E-01
C8 -1.078402631362E-01 -1.979176438026E-01 -1.336988282848E-01
C9  4.566516441772E-02  1.099472999292E-01  2.047802557771E-02
C10 -4.566516441772E-02 -1.099472999292E-01 -2.047802557771E-02
C11  6.998059241089E-02  2.301127793463E-01 -5.404480057075E-02
C12 -6.998059241089E-02 -2.301127793463E-01  5.404480057075E-02
C13 -7.218997260445E-03 -1.423839529741E-01  1.657638156407E-01
C14  7.218997260445E-03  1.423839529741E-01 -1.657638156407E-01
C15 -3.012977170864E-02 -2.642673209214E-01  2.421408242671E-01
C16  3.012977170864E-02  2.642673209214E-01 -2.421408242671E-01
C17  3.262258247580E-02 -1.753501781936E-01  3.515196619531E-01
C18 -3.262258247580E-02  1.753501781936E-01 -3.515196619531E-01
H19  1.711460393117E-01  1.113955486368E-01  4.806791910534E-01
H20 -1.711460393117E-01 -1.113955486368E-01 -4.806791910534E-01
H21  2.113972345548E-01  3.350638771955E-01  3.519783126311E-01
H22 -2.113972345548E-01 -3.350638771955E-01 -3.519783126311E-01
H23  1.774528979712E-01  3.654026987288E-01  1.648191115805E-01
H24 -1.774528979712E-01 -3.654026987288E-01 -1.648191115805E-01
H25  1.395964281765E-01  3.976033113997E-01 -2.286372874660E-02
H26 -1.395964281765E-01 -3.976033113997E-01  2.286372874660E-02
H27 -9.926918421844E-02 -4.316404119994E-01  2.108046831393E-01
H28  9.926918421844E-02  4.316404119994E-01 -2.108046831393E-01
H29  1.384720308562E-02 -2.718028949089E-01  4.090533347156E-01
H30 -1.384720308562E-02  2.718028949089E-01 -4.090533347156E-01
C31 -4.536055218008E-01 -4.255594352628E-01  3.812231969393E-01
C32  4.536055218008E-01  4.255594352628E-01 -3.812231969393E-01
C33  4.863199944015E-01 -3.095144786988E-01  2.954253922352E-01
C34 -4.863199944015E-01  3.095144786988E-01 -2.954253922352E-01
C35 -4.983183033617E-01 -4.070276874679E-01  1.933457838351E-01
C36  4.983183033617E-01  4.070276874679E-01 -1.933457838351E-01
C37  4.428242918181E-01 -2.917240183355E-01  1.049473124961E-01
C38 -4.428242918181E-01  2.917240183355E-01 -1.049473124961E-01
C39  4.602587775759E-01 -3.878531299246E-01  5.258391900477E-03
C40 -4.602587775759E-01  3.878531299246E-01 -5.258391900477E-03
C41  4.013060633383E-01 -2.722605309400E-01 -8.469971101332E-02
C42 -4.013060633383E-01  2.722605309400E-01  8.469971101332E-02
C43 -4.187458791166E-01  3.688941315583E-01  1.829064827380E-01
C44  4.187458791166E-01 -3.688941315583E-01 -1.829064827380E-01
C45 -3.571051185174E-01  2.540166308222E-01  2.753179814066E-01
C46  3.571051185174E-01 -2.540166308222E-01 -2.753179814066E-01
C47 -3.741280671352E-01  3.535220380799E-01  3.711516638804E-01
C48  3.741280671352E-01 -3.535220380799E-01 -3.711516638804E-01
H49 -4.655482658861E-01 -3.478403263226E-01  4.593798931075E-01
H50  4.655482658861E-01  3.478403263226E-01 -4.593798931075E-01
H51  4.259198511284E-01 -1.389328878431E-01  3.036738830960E-01
H52 -4.259198511284E-01  1.389328878431E-01 -3.036738830960E-01
H53  3.819523829642E-01 -1.211221928205E-01  1.129938056049E-01
H54 -3.819523829642E-01  1.211221928205E-01 -1.129938056049E-01
H55  3.402246508200E-01 -1.017419124009E-01 -7.667117217005E-02
H56 -3.402246508200E-01  1.017419124009E-01  7.667117217005E-02
H57 -2.947195667681E-01  8.439086288649E-02  2.676464532541E-01
H58  2.947195667681E-01 -8.439086288649E-02 -2.676464532541E-01
H59 -3.256900322234E-01  2.641018064975E-01  4.419141646581E-01
H60  3.256900322234E-01 -2.641018064975E-01 -4.419141646581E-01


#===END

data_OPT_STEP_25

_symmetry_space_group_name_H-M 'P 1'
_cell_length_a      7.90325955
_cell_length_b      6.03782618
_cell_length_c     13.53927512
_cell_angle_alpha  100.695438
_cell_angle_beta  112.768142
_cell_angle_gamma   86.228679

loop_
_atom_site_label
_atom_site_fract_x
_atom_site_fract_y
_atom_site_fract_z
C1  1.217126784024E-01  4.242478079592E-02  3.921018399374E-01
C2 -1.217126784024E-01 -4.242478079592E-02 -3.921018399374E-01
C3  1.450975065690E-01  1.653822132197E-01  3.219820991055E-01
C4 -1.450975065690E-01 -1.653822132197E-01 -3.219820991055E-01
C5  8.329424188601E-02  7.758322231337E-02  2.066848176548E-01
C6 -8.329424188601E-02 -7.758322231337E-02 -2.066848176548E-01
C7  1.078285465614E-01  1.978900525294E-01  1.337683275880E-01
C8 -1.078285465614E-01 -1.978900525294E-01 -1.337683275880E-01
C9  4.541671361561E-02  1.101073699703E-01  2.049554535222E-02
C10 -4.541671361561E-02 -1.101073699703E-01 -2.049554535222E-02
C11  6.962977287152E-02  2.304656663718E-01 -5.399418488864E-02
C12 -6.962977287152E-02 -2.304656663718E-01  5.399418488864E-02
C13 -7.224059820388E-03 -1.425914000004E-01  1.657276172041E-01
C14  7.224059820388E-03  1.425914000004E-01 -1.657276172041E-01
C15 -3.060202020062E-02 -2.643608713617E-01  2.420128215479E-01
C16  3.060202020062E-02  2.643608713617E-01 -2.420128215479E-01
C17  3.270936717697E-02 -1.757598414731E-01  3.515052743592E-01
C18 -3.270936717697E-02  1.757598414731E-01 -3.515052743592E-01
H19  1.710671852524E-01  1.111829422351E-01  4.806801595990E-01
H20 -1.710671852524E-01 -1.111829422351E-01 -4.806801595990E-01
H21  2.110610738863E-01  3.350682052112E-01  3.521872798252E-01
H22 -2.110610738863E-01 -3.350682052112E-01 -3.521872798252E-01
H23  1.776691041582E-01  3.652588070616E-01  1.649492655153E-01
H24 -1.776691041582E-01 -3.652588070616E-01 -1.649492655153E-01
H25  1.394952775707E-01  3.977948404229E-01 -2.272336983727E-02
H26 -1.394952775707E-01 -3.977948404229E-01  2.272336983727E-02
H27 -1.000509284715E-01 -4.315936078443E-01  2.105968781908E-01
H28  1.000509284715E-01  4.315936078443E-01 -2.105968781908E-01
H29  1.410350950401E-02 -2.723507727776E-01  4.090506800915E-01
H30 -1.410350950401E-02  2.723507727776E-01 -4.090506800915E-01
C31 -4.538479363004E-01 -4.254503204438E-01  3.811885084730E-01
C32  4.538479363004E-01  4.254503204438E-01 -3.811885084730E-01
C33  4.861102500480E-01 -3.092448021296E-01  2.953586392086E-01
C34 -4.861102500480E-01  3.092448021296E-01 -2.953586392086E-01
C35 -4.983081354858E-01 -4.067452240842E-01  1.933676405475E-01
C36  4.983081354858E-01  4.067452240842E-01 -1.933676405475E-01
C37  4.431453525159E-01 -2.913009626531E-01  1.050158380350E-01
C38 -4.431453525159E-01  2.913009626531E-01 -1.050158380350E-01
C39  4.603172710324E-01 -3.878112119295E-01  5.248110053369E-03
C40 -4.603172710324E-01  3.878112119295E-01 -5.248110053369E-03
C41  4.015677764927E-01 -2.721525890579E-01 -8.469438535329E-02
C42 -4.015677764927E-01  2.721525890579E-01  8.469438535329E-02
C43 -4.187042070217E-01  3.690541511388E-01  1.829846757300E-01
C44  4.187042070217E-01 -3.690541511388E-01 -1.829846757300E-01
C45 -3.569971169097E-01  2.540956567348E-01  2.753942872193E-01
C46  3.569971169097E-01 -2.540956567348E-01 -2.753942872193E-01
C47 -3.743595779755E-01  3.534612073491E-01  3.711220595282E-01
C48  3.743595779755E-01 -3.534612073491E-01 -3.711220595282E-01
H49 -4.656213258147E-01 -3.477157539446E-01  4.593857956729E-01
H50  4.656213258147E-01  3.477157539446E-01 -4.593857956729E-01
H51  4.250444271072E-01 -1.388489205572E-01  3.033790906210E-01
H52 -4.250444271072E-01  1.388489205572E-01 -3.033790906210E-01
H53  3.821511632002E-01 -1.206558750834E-01  1.130019230653E-01
H54 -3.821511632002E-01  1.206558750834E-01 -1.130019230653E-01
H55  3.398502796357E-01 -1.018709846543E-01 -7.684570086438E-02
H56 -3.398502796357E-01  1.018709846543E-01  7.684570086438E-02
H57 -2.947131914580E-01  8.436422259863E-02  2.677300416678E-01
H58  2.947131914580E-01 -8.436422259863E-02 -2.677300416678E-01
H59 -3.258335851033E-01  2.640892985382E-01  4.419001299366E-01
H60  3.258335851033E-01 -2.640892985382E-01 -4.419001299366E-01


#===END

data_OPT_STEP_26

_symmetry_space_group_name_H-M 'P 1'
_cell_length_a      7.91246579
_cell_length_b      6.03366866
_cell_length_c     13.53868541
_cell_angle_alpha  100.709811
_cell_angle_beta  112.771741
_cell_angle_gamma   86.236755

loop_
_atom_site_label
_atom_site_fract_x
_atom_site_fract_y
_atom_site_fract_z
C1  1.212884757103E-01  4.274070660328E-02  3.921061162597E-01
C2 -1.212884757103E-01 -4.274070660328E-02 -3.921061162597E-01
C3  1.449740910456E-01  1.655564385530E-01  3.220221580184E-01
C4 -1.449740910456E-01 -1.655564385530E-01 -3.220221580184E-01
C5  8.300917202326E-02  7.780593596975E-02  2.066935076490E-01
C6 -8.300917202326E-02 -7.780593596975E-02 -2.066935076490E-01
C7  1.078836424278E-01  1.979796540911E-01  1.338268702141E-01
C8 -1.078836424278E-01 -1.979796540911E-01 -1.338268702141E-01
C9  4.550857393695E-02  1.101214627058E-01  2.052667236188E-02
C10 -4.550857393695E-02 -1.101214627058E-01 -2.052667236188E-02
C11  6.980415161912E-02  2.305090751436E-01 -5.394423792779E-02
C12 -6.980415161912E-02 -2.305090751436E-01  5.394423792779E-02
C13 -7.491467215874E-03 -1.425186621927E-01  1.657004367860E-01
C14  7.491467215874E-03  1.425186621927E-01 -1.657004367860E-01
C15 -3.088945119938E-02 -2.643750474124E-01  2.419659052429E-01
C16  3.088945119938E-02  2.643750474124E-01 -2.419659052429E-01
C17  3.229570395609E-02 -1.756166865048E-01  3.514816764258E-01
C18 -3.229570395609E-02  1.756166865048E-01 -3.514816764258E-01
H19  1.703793608549E-01  1.117415846531E-01  4.806749872657E-01
H20 -1.703793608549E-01 -1.117415846531E-01 -4.806749872657E-01
H21  2.111547355397E-01  3.352084225948E-01  3.522813377310E-01
H22 -2.111547355397E-01 -3.352084225948E-01 -3.522813377310E-01
H23  1.777453602308E-01  3.654348291890E-01  1.650367397218E-01
H24 -1.777453602308E-01 -3.654348291890E-01 -1.650367397218E-01
H25  1.395463732785E-01  3.980034876298E-01 -2.265536200457E-02
H26 -1.395463732785E-01 -3.980034876298E-01  2.265536200457E-02
H27 -1.003493386191E-01 -4.316908922116E-01  2.105218040085E-01
H28  1.003493386191E-01  4.316908922116E-01 -2.105218040085E-01
H29  1.352468706047E-02 -2.721624523941E-01  4.090114158651E-01
H30 -1.352468706047E-02  2.721624523941E-01 -4.090114158651E-01
C31 -4.537305394074E-01 -4.253328223687E-01  3.812546228940E-01
C32  4.537305394074E-01  4.253328223687E-01 -3.812546228940E-01
C33  4.859219354756E-01 -3.092434381840E-01  2.953534157992E-01
C34 -4.859219354756E-01  3.092434381840E-01 -2.953534157992E-01
C35 -4.985499089983E-01 -4.068297609843E-01  1.933420009742E-01
C36  4.985499089983E-01  4.068297609843E-01 -1.933420009742E-01
C37  4.427717894521E-01 -2.914217988552E-01  1.049519018053E-01
C38 -4.427717894521E-01  2.914217988552E-01 -1.049519018053E-01
C39  4.602952615771E-01 -3.877739507822E-01  5.252975907478E-03
C40 -4.602952615771E-01  3.877739507822E-01 -5.252975907478E-03
C41  4.016762714932E-01 -2.720075764326E-01 -8.466490246947E-02
C42 -4.016762714932E-01  2.720075764326E-01  8.466490246947E-02
C43 -4.187275194343E-01  3.689877768390E-01  1.829940133921E-01
C44  4.187275194343E-01 -3.689877768390E-01 -1.829940133921E-01
C45 -3.568495894325E-01  2.540569149897E-01  2.754392353392E-01
C46  3.568495894325E-01 -2.540569149897E-01 -2.754392353392E-01
C47 -3.740046782632E-01  3.535526609018E-01  3.712297367389E-01
C48  3.740046782632E-01 -3.535526609018E-01 -3.712297367389E-01
H49 -4.655021542759E-01 -3.475705670254E-01  4.594591045540E-01
H50  4.655021542759E-01  3.475705670254E-01 -4.594591045540E-01
H51  4.248731837970E-01 -1.387600483395E-01  3.033766006545E-01
H52 -4.248731837970E-01  1.387600483395E-01 -3.033766006545E-01
H53  3.816472800940E-01 -1.207700571775E-01  1.129147306724E-01
H54 -3.816472800940E-01  1.207700571775E-01 -1.129147306724E-01
H55  3.402142360910E-01 -1.015314580889E-01 -7.674379176354E-02
H56 -3.402142360910E-01  1.015314580889E-01  7.674379176354E-02
H57 -2.942579966051E-01  8.441808655559E-02  2.678313590664E-01
H58  2.942579966051E-01 -8.441808655559E-02 -2.678313590664E-01
H59 -3.257517062739E-01  2.639994684235E-01  4.419434525664E-01
H60  3.257517062739E-01 -2.639994684235E-01 -4.419434525664E-01


#===END

data_OPT_STEP_27

_symmetry_space_group_name_H-M 'P 1'
_cell_length_a      7.92994612
_cell_length_b      6.02183967
_cell_length_c     13.53684134
_cell_angle_alpha  100.693115
_cell_angle_beta  112.807789
_cell_angle_gamma   86.250550

loop_
_atom_site_label
_atom_site_fract_x
_atom_site_fract_y
_atom_site_fract_z
C1  1.214388938918E-01  4.194933243214E-02  3.921681697260E-01
C2 -1.214388938918E-01 -4.194933243214E-02 -3.921681697260E-01
C3  1.448465893846E-01  1.653367764569E-01  3.221007362719E-01
C4 -1.448465893846E-01 -1.653367764569E-01 -3.221007362719E-01
C5  8.271295485341E-02  7.777958365918E-02  2.067066399465E-01
C6 -8.271295485341E-02 -7.777958365918E-02 -2.067066399465E-01
C7  1.081542980329E-01  1.979248660672E-01  1.339397899298E-01
C8 -1.081542980329E-01 -1.979248660672E-01 -1.339397899298E-01
C9  4.578231774282E-02  1.101044027182E-01  2.059490715721E-02
C10 -4.578231774282E-02 -1.101044027182E-01 -2.059490715721E-02
C11  7.006534895251E-02  2.308238235471E-01 -5.384117965118E-02
C12 -7.006534895251E-02 -2.308238235471E-01  5.384117965118E-02
C13 -7.879609993893E-03 -1.427797159242E-01  1.656294249656E-01
C14  7.879609993893E-03  1.427797159242E-01 -1.656294249656E-01
C15 -3.144666961024E-02 -2.648783308203E-01  2.418260540667E-01
C16  3.144666961024E-02  2.648783308203E-01 -2.418260540667E-01
C17  3.169373709914E-02 -1.762101371741E-01  3.513680536800E-01
C18 -3.169373709914E-02  1.762101371741E-01 -3.513680536800E-01
H19  1.711113879174E-01  1.105112761627E-01  4.808401380481E-01
H20 -1.711113879174E-01 -1.105112761627E-01 -4.808401380481E-01
H21  2.113878711300E-01  3.350383530883E-01  3.524616948073E-01
H22 -2.113878711300E-01 -3.350383530883E-01 -3.524616948073E-01
H23  1.780607999035E-01  3.655965143847E-01  1.652119934653E-01
H24 -1.780607999035E-01 -3.655965143847E-01 -1.652119934653E-01
H25  1.392440224276E-01  3.988887163583E-01 -2.254661799584E-02
H26 -1.392440224276E-01 -3.988887163583E-01  2.254661799584E-02
H27 -1.009216198346E-01 -4.324003434806E-01  2.103126789418E-01
H28  1.009216198346E-01  4.324003434806E-01 -2.103126789418E-01
H29  1.284087967282E-02 -2.730310175884E-01  4.088414953312E-01
H30 -1.284087967282E-02  2.730310175884E-01 -4.088414953312E-01
C31 -4.536131753705E-01 -4.251060125385E-01  3.813380741501E-01
C32  4.536131753705E-01  4.251060125385E-01 -3.813380741501E-01
C33  4.861933173924E-01 -3.088328768453E-01  2.954033472282E-01
C34 -4.861933173924E-01  3.088328768453E-01 -2.954033472282E-01
C35 -4.983894633600E-01 -4.066398950151E-01  1.933773355619E-01
C36  4.983894633600E-01  4.066398950151E-01 -1.933773355619E-01
C37  4.423995068332E-01 -2.913581697767E-01  1.047901884736E-01
C38 -4.423995068332E-01  2.913581697767E-01 -1.047901884736E-01
C39  4.601818976280E-01 -3.876490759453E-01  5.177916827091E-03
C40 -4.601818976280E-01  3.876490759453E-01 -5.177916827091E-03
C41  4.013907870471E-01 -2.718117246829E-01 -8.485258557931E-02
C42 -4.013907870471E-01  2.718117246829E-01  8.485258557931E-02
C43 -4.187723908097E-01  3.687550014893E-01  1.830800886201E-01
C44  4.187723908097E-01 -3.687550014893E-01 -1.830800886201E-01
C45 -3.572039641415E-01  2.535524214966E-01  2.755370123218E-01
C46  3.572039641415E-01 -2.535524214966E-01 -2.755370123218E-01
C47 -3.742331682160E-01  3.533271575718E-01  3.713478162997E-01
C48  3.742331682160E-01 -3.533271575718E-01 -3.713478162997E-01
H49 -4.653732873735E-01 -3.471773192156E-01  4.595286634408E-01
H50  4.653732873735E-01  3.471773192156E-01 -4.595286634408E-01
H51  4.252986054923E-01 -1.380627168364E-01  3.034045663538E-01
H52 -4.252986054923E-01  1.380627168364E-01 -3.034045663538E-01
H53  3.806726124657E-01 -1.207826752893E-01  1.125379109389E-01
H54 -3.806726124657E-01  1.207826752893E-01 -1.125379109389E-01
H55  3.399103602398E-01 -1.011111064696E-01 -7.700978345216E-02
H56 -3.399103602398E-01  1.011111064696E-01  7.700978345216E-02
H57 -2.946625010454E-01  8.365439366833E-02  2.679974072492E-01
H58  2.946625010454E-01 -8.365439366833E-02 -2.679974072492E-01
H59 -3.262041083369E-01  2.636236243620E-01  4.420818039273E-01
H60  3.262041083369E-01 -2.636236243620E-01 -4.420818039273E-01


#===END

data_OPT_STEP_28

_symmetry_space_group_name_H-M 'P 1'
_cell_length_a      7.93187242
_cell_length_b      6.02051897
_cell_length_c     13.53512848
_cell_angle_alpha  100.721165
_cell_angle_beta  112.794901
_cell_angle_gamma   86.240443

loop_
_atom_site_label
_atom_site_fract_x
_atom_site_fract_y
_atom_site_fract_z
C1  1.212742679174E-01  4.200830260190E-02  3.921890748088E-01
C2 -1.212742679174E-01 -4.200830260190E-02 -3.921890748088E-01
C3  1.448679652198E-01  1.653237387552E-01  3.221560467321E-01
C4 -1.448679652198E-01 -1.653237387552E-01 -3.221560467321E-01
C5  8.265452559815E-02  7.781637333280E-02  2.067285677337E-01
C6 -8.265452559815E-02 -7.781637333280E-02 -2.067285677337E-01
C7  1.081414535355E-01  1.979706531602E-01  1.339808100719E-01
C8 -1.081414535355E-01 -1.979706531602E-01 -1.339808100719E-01
C9  4.585095733203E-02  1.100837396945E-01  2.062009832892E-02
C10 -4.585095733203E-02 -1.100837396945E-01 -2.062009832892E-02
C11  7.035247761955E-02  2.306893489053E-01 -5.378397727878E-02
C12 -7.035247761955E-02 -2.306893489053E-01  5.378397727878E-02
C13 -8.004441221221E-03 -1.427399173959E-01  1.656059092751E-01
C14  8.004441221221E-03  1.427399173959E-01 -1.656059092751E-01
C15 -3.160745513347E-02 -2.648432110215E-01  2.417861044161E-01
C16  3.160745513347E-02  2.648432110215E-01 -2.417861044161E-01
C17  3.153703040461E-02 -1.761842056589E-01  3.513468908539E-01
C18 -3.153703040461E-02  1.761842056589E-01 -3.513468908539E-01
H19  1.707842409785E-01  1.106869105152E-01  4.808679422268E-01
H20 -1.707842409785E-01 -1.106869105152E-01 -4.808679422268E-01
H21  2.115652368335E-01  3.349688655128E-01  3.525492769905E-01
H22 -2.115652368335E-01 -3.349688655128E-01 -3.525492769905E-01
H23  1.782269349823E-01  3.655656811323E-01  1.652972764966E-01
H24 -1.782269349823E-01 -3.655656811323E-01 -1.652972764966E-01
H25  1.397442645157E-01  3.986619279627E-01 -2.244119204525E-02
H26 -1.397442645157E-01 -3.986619279627E-01  2.244119204525E-02
H27 -1.012379121699E-01 -4.323050858368E-01  2.102266497743E-01
H28  1.012379121699E-01  4.323050858368E-01 -2.102266497743E-01
H29  1.265448442719E-02 -2.730184909972E-01  4.088009975373E-01
H30 -1.265448442719E-02  2.730184909972E-01 -4.088009975373E-01
C31 -4.535875166932E-01 -4.250103036138E-01  3.814043953883E-01
C32  4.535875166932E-01  4.250103036138E-01 -3.814043953883E-01
C33  4.862022776735E-01 -3.087479336939E-01  2.954854854093E-01
C34 -4.862022776735E-01  3.087479336939E-01 -2.954854854093E-01
C35 -4.983861401074E-01 -4.065994409649E-01  1.934197454856E-01
C36  4.983861401074E-01  4.065994409649E-01 -1.934197454856E-01
C37  4.423448947912E-01 -2.913309746787E-01  1.048310987566E-01
C38 -4.423448947912E-01  2.913309746787E-01 -1.048310987566E-01
C39  4.601056043616E-01 -3.876575863148E-01  5.184314477826E-03
C40 -4.601056043616E-01  3.876575863148E-01 -5.184314477826E-03
C41  4.012974953364E-01 -2.718092281634E-01 -8.483730646195E-02
C42 -4.012974953364E-01  2.718092281634E-01  8.483730646195E-02
C43 -4.186692342426E-01  3.688022810543E-01  1.830951092934E-01
C44  4.186692342426E-01 -3.688022810543E-01 -1.830951092934E-01
C45 -3.570092968097E-01  2.536534952397E-01  2.755663984213E-01
C46  3.570092968097E-01 -2.536534952397E-01 -2.755663984213E-01
C47 -3.741501497455E-01  3.534157691340E-01  3.713800508462E-01
C48  3.741501497455E-01 -3.534157691340E-01 -3.713800508462E-01
H49 -4.654170771079E-01 -3.470811410419E-01  4.596046866926E-01
H50  4.654170771079E-01  3.470811410419E-01 -4.596046866926E-01
H51  4.253206401182E-01 -1.379464476597E-01  3.035329838774E-01
H52 -4.253206401182E-01  1.379464476597E-01 -3.035329838774E-01
H53  3.806851504014E-01 -1.206881876727E-01  1.126281202470E-01
H54 -3.806851504014E-01  1.206881876727E-01 -1.126281202470E-01
H55  3.399746683462E-01 -1.009918259596E-01 -7.692394082922E-02
H56 -3.399746683462E-01  1.009918259596E-01  7.692394082922E-02
H57 -2.945414900106E-01  8.368325941807E-02  2.679717898965E-01
H58  2.945414900106E-01 -8.368325941807E-02 -2.679717898965E-01
H59 -3.259578868095E-01  2.637912261339E-01  4.421441837481E-01
H60  3.259578868095E-01 -2.637912261339E-01 -4.421441837481E-01


#===END

data_OPT_STEP_29

_symmetry_space_group_name_H-M 'P 1'
_cell_length_a      7.93863999
_cell_length_b      6.01826094
_cell_length_c     13.53305081
_cell_angle_alpha  100.691392
_cell_angle_beta  112.809283
_cell_angle_gamma   86.276960

loop_
_atom_site_label
_atom_site_fract_x
_atom_site_fract_y
_atom_site_fract_z
C1  1.211956037187E-01  4.156547847326E-02  3.922390944983E-01
C2 -1.211956037187E-01 -4.156547847326E-02 -3.922390944983E-01
C3  1.453102317922E-01  1.647240483798E-01  3.222737268632E-01
C4 -1.453102317922E-01 -1.647240483798E-01 -3.222737268632E-01
C5  8.299366047087E-02  7.738684929132E-02  2.067982867809E-01
C6 -8.299366047087E-02 -7.738684929132E-02 -2.067982867809E-01
C7  1.081733003085E-01  1.979044950906E-01  1.340321885949E-01
C8 -1.081733003085E-01 -1.979044950906E-01 -1.340321885949E-01
C9  4.569069521326E-02  1.102212463345E-01  2.062452766264E-02
C10 -4.569069521326E-02 -1.102212463345E-01 -2.062452766264E-02
C11  7.024672938059E-02  2.309406763742E-01 -5.376256843189E-02
C12 -7.024672938059E-02 -2.309406763742E-01  5.376256843189E-02
C13 -7.843002487444E-03 -1.431234389825E-01  1.656160354570E-01
C14  7.843002487444E-03  1.431234389825E-01 -1.656160354570E-01
C15 -3.153842263792E-02 -2.653487107026E-01  2.417784499988E-01
C16  3.153842263792E-02  2.653487107026E-01 -2.417784499988E-01
C17  3.133086838146E-02 -1.766004541136E-01  3.513474255193E-01
C18 -3.133086838146E-02  1.766004541136E-01 -3.513474255193E-01
H19  1.703528571814E-01  1.104036068108E-01  4.809032842924E-01
H20 -1.703528571814E-01 -1.104036068108E-01 -4.809032842924E-01
H21  2.120287413610E-01  3.344087006893E-01  3.526937938550E-01
H22 -2.120287413610E-01 -3.344087006893E-01 -3.526937938550E-01
H23  1.785119211379E-01  3.654042512496E-01  1.654007631446E-01
H24 -1.785119211379E-01 -3.654042512496E-01 -1.654007631446E-01
H25  1.400914639462E-01  3.987029600194E-01 -2.235081696881E-02
H26 -1.400914639462E-01 -3.987029600194E-01  2.235081696881E-02
H27 -1.013704570186E-01 -4.327375818396E-01  2.101827036776E-01
H28  1.013704570186E-01  4.327375818396E-01 -2.101827036776E-01
H29  1.178006952933E-02 -2.731257665228E-01  4.087454574769E-01
H30 -1.178006952933E-02  2.731257665228E-01 -4.087454574769E-01
C31 -4.537995335251E-01 -4.248169149604E-01  3.814231129592E-01
C32  4.537995335251E-01  4.248169149604E-01 -3.814231129592E-01
C33  4.858340899074E-01 -3.087459480369E-01  2.953853645387E-01
C34 -4.858340899074E-01  3.087459480369E-01 -2.953853645387E-01
C35 -4.987807197291E-01 -4.066830528717E-01  1.933342887379E-01
C36  4.987807197291E-01  4.066830528717E-01 -1.933342887379E-01
C37  4.425001331339E-01 -2.912079198480E-01  1.047879614307E-01
C38 -4.425001331339E-01  2.912079198480E-01 -1.047879614307E-01
C39  4.603246635205E-01 -3.875715474523E-01  5.178523217429E-03
C40 -4.603246635205E-01  3.875715474523E-01 -5.178523217429E-03
C41  4.015506754458E-01 -2.717807638589E-01 -8.491057511212E-02
C42 -4.015506754458E-01  2.717807638589E-01  8.491057511212E-02
C43 -4.188444393567E-01  3.688724275056E-01  1.831671236782E-01
C44  4.188444393567E-01 -3.688724275056E-01 -1.831671236782E-01
C45 -3.567507261834E-01  2.540722659375E-01  2.758162652579E-01
C46  3.567507261834E-01 -2.540722659375E-01 -2.758162652579E-01
C47 -3.739628527835E-01  3.538558349349E-01  3.715985181311E-01
C48  3.739628527835E-01 -3.538558349349E-01 -3.715985181311E-01
H49 -4.657061866505E-01 -3.468813727207E-01  4.595906261191E-01
H50  4.657061866505E-01  3.468813727207E-01 -4.595906261191E-01
H51  4.250868581829E-01 -1.378997902752E-01  3.033821205484E-01
H52 -4.250868581829E-01  1.378997902752E-01 -3.033821205484E-01
H53  3.812056850097E-01 -1.204100030965E-01  1.125923217095E-01
H54 -3.812056850097E-01  1.204100030965E-01 -1.125923217095E-01
H55  3.398978951828E-01 -1.011531072335E-01 -7.714629989269E-02
H56 -3.398978951828E-01  1.011531072335E-01  7.714629989269E-02
H57 -2.940573467912E-01  8.423113866679E-02  2.683531168274E-01
H58  2.940573467912E-01 -8.423113866679E-02 -2.683531168274E-01
H59 -3.255355935162E-01  2.644347425342E-01  4.424783985727E-01
H60  3.255355935162E-01 -2.644347425342E-01 -4.424783985727E-01


#===END

data_OPT_STEP_30

_symmetry_space_group_name_H-M 'P 1'
_cell_length_a      7.93931327
_cell_length_b      6.01737729
_cell_length_c     13.53260268
_cell_angle_alpha  100.778888
_cell_angle_beta  112.791693
_cell_angle_gamma   86.221317

loop_
_atom_site_label
_atom_site_fract_x
_atom_site_fract_y
_atom_site_fract_z
C1  1.210357526865E-01  4.187569008174E-02  3.922726248136E-01
C2 -1.210357526865E-01 -4.187569008174E-02 -3.922726248136E-01
C3  1.451363919337E-01  1.650114537496E-01  3.223548366267E-01
C4 -1.451363919337E-01 -1.650114537496E-01 -3.223548366267E-01
C5  8.293938993467E-02  7.753517894348E-02  2.068464775933E-01
C6 -8.293938993467E-02 -7.753517894348E-02 -2.068464775933E-01
C7  1.084045800958E-01  1.978662671210E-01  1.341572102747E-01
C8 -1.084045800958E-01 -1.978662671210E-01 -1.341572102747E-01
C9  4.593209048842E-02  1.100948259195E-01  2.070258138431E-02
C10 -4.593209048842E-02 -1.100948259195E-01 -2.070258138431E-02
C11  7.066683194848E-02  2.306989051536E-01 -5.361640818625E-02
C12 -7.066683194848E-02 -2.306989051536E-01  5.361640818625E-02
C13 -8.111526946992E-03 -1.429144361936E-01  1.655309023747E-01
C14  8.111526946992E-03  1.429144361936E-01 -1.655309023747E-01
C15 -3.185879399829E-02 -2.651032438862E-01  2.416449908895E-01
C16  3.185879399829E-02  2.651032438862E-01 -2.416449908895E-01
C17  3.139464629221E-02 -1.765027838433E-01  3.513037041241E-01
C18 -3.139464629221E-02  1.765027838433E-01 -3.513037041241E-01
H19  1.702912937083E-01  1.107224202489E-01  4.809809850241E-01
H20 -1.702912937083E-01 -1.107224202489E-01 -4.809809850241E-01
H21  2.119277385592E-01  3.346814352483E-01  3.529050992930E-01
H22 -2.119277385592E-01 -3.346814352483E-01 -3.529050992930E-01
H23  1.790010489797E-01  3.652449641131E-01  1.656284482110E-01
H24 -1.790010489797E-01 -3.652449641131E-01 -1.656284482110E-01
H25  1.408463040535E-01  3.982924874593E-01 -2.208525508043E-02
H26 -1.408463040535E-01 -3.982924874593E-01  2.208525508043E-02
H27 -1.019528529240E-01 -4.323898216064E-01  2.099355997336E-01
H28  1.019528529240E-01  4.323898216064E-01 -2.099355997336E-01
H29  1.217063415936E-02 -2.732059586877E-01  4.086894637133E-01
H30 -1.217063415936E-02  2.732059586877E-01 -4.086894637133E-01
C31 -4.539524480681E-01 -4.247530358840E-01  3.814616565654E-01
C32  4.539524480681E-01  4.247530358840E-01 -3.814616565654E-01
C33  4.855277219652E-01 -3.086895404347E-01  2.954698727510E-01
C34 -4.855277219652E-01  3.086895404347E-01 -2.954698727510E-01
C35 -4.988916436042E-01 -4.066010823024E-01  1.933871020101E-01
C36  4.988916436042E-01  4.066010823024E-01 -1.933871020101E-01
C37  4.423724597237E-01 -2.911029045550E-01  1.049162840751E-01
C38 -4.423724597237E-01  2.911029045550E-01 -1.049162840751E-01
C39  4.601683840453E-01 -3.876005016308E-01  5.224739199581E-03
C40 -4.601683840453E-01  3.876005016308E-01 -5.224739199581E-03
C41  4.015364787905E-01 -2.716981487047E-01 -8.476176629525E-02
C42 -4.015364787905E-01  2.716981487047E-01  8.476176629525E-02
C43 -4.188323374248E-01  3.688884551591E-01  1.830925610879E-01
C44  4.188323374248E-01 -3.688884551591E-01 -1.830925610879E-01
C45 -3.568072260092E-01  2.539768005051E-01  2.756515812886E-01
C46  3.568072260092E-01 -2.539768005051E-01 -2.756515812886E-01
C47 -3.739917258819E-01  3.538517565682E-01  3.714997616930E-01
C48  3.739917258819E-01 -3.538517565682E-01 -3.714997616930E-01
H49 -4.657898519229E-01 -3.467670303760E-01  4.597091223218E-01
H50  4.657898519229E-01  3.467670303760E-01 -4.597091223218E-01
H51  4.245104035155E-01 -1.378664795313E-01  3.035123187097E-01
H52 -4.245104035155E-01  1.378664795313E-01 -3.035123187097E-01
H53  3.811329733310E-01 -1.201759124742E-01  1.128517357796E-01
H54 -3.811329733310E-01  1.201759124742E-01 -1.128517357796E-01
H55  3.399511134797E-01 -1.009315036454E-01 -7.686919383526E-02
H56 -3.399511134797E-01  1.009315036454E-01  7.686919383526E-02
H57 -2.940726216612E-01  8.406445053880E-02  2.680797385235E-01
H58  2.940726216612E-01 -8.406445053880E-02 -2.680797385235E-01
H59 -3.255195614613E-01  2.644110497895E-01  4.423343651049E-01
H60  3.255195614613E-01 -2.644110497895E-01 -4.423343651049E-01


#===END

data_OPT_STEP_31

_symmetry_space_group_name_H-M 'P 1'
_cell_length_a      7.95044129
_cell_length_b      6.01352873
_cell_length_c     13.53344602
_cell_angle_alpha  100.756531
_cell_angle_beta  112.818083
_cell_angle_gamma   86.228956

loop_
_atom_site_label
_atom_site_fract_x
_atom_site_fract_y
_atom_site_fract_z
C1  1.211308876295E-01  4.192823496042E-02  3.923065690406E-01
C2 -1.211308876295E-01 -4.192823496042E-02 -3.923065690406E-01
C3  1.450752756034E-01  1.651809665353E-01  3.223539669946E-01
C4 -1.450752756034E-01 -1.651809665353E-01 -3.223539669946E-01
C5  8.275348622115E-02  7.773354058733E-02  2.068397051333E-01
C6 -8.275348622115E-02 -7.773354058733E-02 -2.068397051333E-01
C7  1.081910224865E-01  1.980871997805E-01  1.341324251190E-01
C8 -1.081910224865E-01 -1.980871997805E-01 -1.341324251190E-01
C9  4.580151925827E-02  1.102071818251E-01  2.068050571774E-02
C10 -4.580151925827E-02 -1.102071818251E-01 -2.068050571774E-02
C11  7.076295785208E-02  2.306687540903E-01 -5.363430224505E-02
C12 -7.076295785208E-02 -2.306687540903E-01  5.363430224505E-02
C13 -8.228621668602E-03 -1.428184001465E-01  1.655511072476E-01
C14  8.228621668602E-03  1.428184001465E-01 -1.655511072476E-01
C15 -3.197380615407E-02 -2.650304659604E-01  2.416746047415E-01
C16  3.197380615407E-02  2.650304659604E-01 -2.416746047415E-01
C17  3.136840782164E-02 -1.764507640553E-01  3.513474646106E-01
C18 -3.136840782164E-02  1.764507640553E-01 -3.513474646106E-01
H19  1.704196302146E-01  1.107807111802E-01  4.810141104137E-01
H20 -1.704196302146E-01 -1.107807111802E-01 -4.810141104137E-01
H21  2.120477672955E-01  3.347976979327E-01  3.529218615615E-01
H22 -2.120477672955E-01 -3.347976979327E-01 -3.529218615615E-01
H23  1.786627394792E-01  3.655844014465E-01  1.655765080393E-01
H24 -1.786627394792E-01 -3.655844014465E-01 -1.655765080393E-01
H25  1.406677196864E-01  3.984622732410E-01 -2.215059721308E-02
H26 -1.406677196864E-01 -3.984622732410E-01  2.215059721308E-02
H27 -1.019855019761E-01 -4.324143228945E-01  2.099734543705E-01
H28  1.019855019761E-01  4.324143228945E-01 -2.099734543705E-01
H29  1.251513562410E-02 -2.734208764253E-01  4.087677556038E-01
H30 -1.251513562410E-02  2.734208764253E-01 -4.087677556038E-01
C31 -4.537117566756E-01 -4.245309651249E-01  3.815086782719E-01
C32  4.537117566756E-01  4.245309651249E-01 -3.815086782719E-01
C33  4.859348290820E-01 -3.083525592966E-01  2.954987278192E-01
C34 -4.859348290820E-01  3.083525592966E-01 -2.954987278192E-01
C35 -4.984710954705E-01 -4.063136755641E-01  1.934597024910E-01
C36  4.984710954705E-01  4.063136755641E-01 -1.934597024910E-01
C37  4.424824511538E-01 -2.909482243682E-01  1.048713919429E-01
C38 -4.424824511538E-01  2.909482243682E-01 -1.048713919429E-01
C39  4.600869874394E-01 -3.875859598689E-01  5.158992446769E-03
C40 -4.600869874394E-01  3.875859598689E-01 -5.158992446769E-03
C41  4.013053277646E-01 -2.717480197025E-01 -8.490682364004E-02
C42 -4.013053277646E-01  2.717480197025E-01  8.490682364004E-02
C43 -4.186200082301E-01  3.689743253525E-01  1.832041612332E-01
C44  4.186200082301E-01 -3.689743253525E-01 -1.832041612332E-01
C45 -3.566519972224E-01  2.540081706736E-01  2.757893782655E-01
C46  3.566519972224E-01 -2.540081706736E-01 -2.757893782655E-01
C47 -3.738361862867E-01  3.539294012329E-01  3.716138485296E-01
C48  3.738361862867E-01 -3.539294012329E-01 -3.716138485296E-01
H49 -4.655840558811E-01 -3.465120687446E-01  4.597170020744E-01
H50  4.655840558811E-01  3.465120687446E-01 -4.597170020744E-01
H51  4.246324432191E-01 -1.376196851897E-01  3.034194398665E-01
H52 -4.246324432191E-01  1.376196851897E-01 -3.034194398665E-01
H53  3.811420115189E-01 -1.200063266227E-01  1.127179963251E-01
H54 -3.811420115189E-01  1.200063266227E-01 -1.127179963251E-01
H55  3.399534073130E-01 -1.008076541925E-01 -7.702409553619E-02
H56 -3.399534073130E-01  1.008076541925E-01  7.702409553619E-02
H57 -2.940129949775E-01  8.399967933541E-02  2.682561492574E-01
H58  2.940129949775E-01 -8.399967933541E-02 -2.682561492574E-01
H59 -3.253476657794E-01  2.644878661537E-01  4.424823110842E-01
H60  3.253476657794E-01 -2.644878661537E-01 -4.424823110842E-01


#===END

data_OPT_STEP_32

_symmetry_space_group_name_H-M 'P 1'
_cell_length_a      7.94155030
_cell_length_b      6.01670909
_cell_length_c     13.53282328
_cell_angle_alpha  100.777299
_cell_angle_beta  112.796784
_cell_angle_gamma   86.223436

loop_
_atom_site_label
_atom_site_fract_x
_atom_site_fract_y
_atom_site_fract_z
C1  1.210889471954E-01  4.183816939160E-02  3.922759126452E-01
C2 -1.210889471954E-01 -4.183816939160E-02 -3.922759126452E-01
C3  1.450851096409E-01  1.650560281670E-01  3.223501571536E-01
C4 -1.450851096409E-01 -1.650560281670E-01 -3.223501571536E-01
C5  8.284001066675E-02  7.760631797562E-02  2.068394609258E-01
C6 -8.284001066675E-02 -7.760631797562E-02 -2.068394609258E-01
C7  1.083140382848E-01  1.979371816620E-01  1.341547488444E-01
C8 -1.083140382848E-01 -1.979371816620E-01 -1.341547488444E-01
C9  4.585468781597E-02  1.101482427392E-01  2.069736257693E-02
C10 -4.585468781597E-02 -1.101482427392E-01 -2.069736257693E-02
C11  7.071489648419E-02  2.306746374205E-01 -5.360700406318E-02
C12 -7.071489648419E-02 -2.306746374205E-01  5.360700406318E-02
C13 -8.175234965582E-03 -1.428721673555E-01  1.655236910628E-01
C14  8.175234965582E-03  1.428721673555E-01 -1.655236910628E-01
C15 -3.192968310235E-02 -2.650732838197E-01  2.416290840784E-01
C16  3.192968310235E-02  2.650732838197E-01 -2.416290840784E-01
C17  3.134424761363E-02 -1.764925185207E-01  3.512925372443E-01
C18 -3.134424761363E-02  1.764925185207E-01 -3.512925372443E-01
H19  1.703185858386E-01  1.106966846404E-01  4.809825503506E-01
H20 -1.703185858386E-01 -1.106966846404E-01 -4.809825503506E-01
H21  2.119559146703E-01  3.346911891743E-01  3.529186204447E-01
H22 -2.119559146703E-01 -3.346911891743E-01 -3.529186204447E-01
H23  1.788985049707E-01  3.653311231654E-01  1.656278386051E-01
H24 -1.788985049707E-01 -3.653311231654E-01 -1.656278386051E-01
H25  1.406904499570E-01  3.983887816685E-01 -2.209510167173E-02
H26 -1.406904499570E-01 -3.983887816685E-01  2.209510167173E-02
H27 -1.020175756969E-01 -4.323731330075E-01  2.099097334852E-01
H28  1.020175756969E-01  4.323731330075E-01 -2.099097334852E-01
H29  1.229385688070E-02 -2.733242478073E-01  4.086840582308E-01
H30 -1.229385688070E-02  2.733242478073E-01 -4.086840582308E-01
C31 -4.538391192578E-01 -4.246525567047E-01  3.814845088486E-01
C32  4.538391192578E-01  4.246525567047E-01 -3.814845088486E-01
C33  4.857274066892E-01 -3.085488005946E-01  2.955017662256E-01
C34 -4.857274066892E-01  3.085488005946E-01 -2.955017662256E-01
C35 -4.986853764858E-01 -4.064755707191E-01  1.934301242732E-01
C36  4.986853764858E-01  4.064755707191E-01 -1.934301242732E-01
C37  4.424054760655E-01 -2.910601117803E-01  1.049129117603E-01
C38 -4.424054760655E-01  2.910601117803E-01 -1.049129117603E-01
C39  4.601304049707E-01 -3.876021827724E-01  5.206034118690E-03
C40 -4.601304049707E-01  3.876021827724E-01 -5.206034118690E-03
C41  4.014250387679E-01 -2.717372527132E-01 -8.480337103599E-02
C42 -4.014250387679E-01  2.717372527132E-01  8.480337103599E-02
C43 -4.187627119761E-01  3.689182187376E-01  1.831200654328E-01
C44  4.187627119761E-01 -3.689182187376E-01 -1.831200654328E-01
C45 -3.567819568780E-01  2.539834962213E-01  2.756728761490E-01
C46  3.567819568780E-01 -2.539834962213E-01 -2.756728761490E-01
C47 -3.739358072642E-01  3.538983823527E-01  3.715273907186E-01
C48  3.739358072642E-01 -3.538983823527E-01 -3.715273907186E-01
H49 -4.657142630388E-01 -3.466577256526E-01  4.597148575703E-01
H50  4.657142630388E-01  3.466577256526E-01 -4.597148575703E-01
H51  4.245143507832E-01 -1.378187311377E-01  3.034935157768E-01
H52 -4.245143507832E-01  1.378187311377E-01 -3.034935157768E-01
H53  3.810741800617E-01 -1.201648536191E-01  1.128158249187E-01
H54 -3.810741800617E-01  1.201648536191E-01 -1.128158249187E-01
H55  3.399646582768E-01 -1.008978262768E-01 -7.689331173749E-02
H56 -3.399646582768E-01  1.008978262768E-01  7.689331173749E-02
H57 -2.941224161382E-01  8.402880507168E-02  2.680941573379E-01
H58  2.941224161382E-01 -8.402880507168E-02 -2.680941573379E-01
H59 -3.254722963326E-01  2.644636310150E-01  4.423635521836E-01
H60  3.254722963326E-01 -2.644636310150E-01 -4.423635521836E-01


#===END

data_OPT_STEP_33

_symmetry_space_group_name_H-M 'P 1'
_cell_length_a      7.94382591
_cell_length_b      6.01569760
_cell_length_c     13.53296755
_cell_angle_alpha  100.780365
_cell_angle_beta  112.801848
_cell_angle_gamma   86.223581

loop_
_atom_site_label
_atom_site_fract_x
_atom_site_fract_y
_atom_site_fract_z
C1  1.211234073135E-01  4.175274673602E-02  3.922744236986E-01
C2 -1.211234073135E-01 -4.175274673602E-02 -3.922744236986E-01
C3  1.450776047090E-01  1.650371797955E-01  3.223568734142E-01
C4 -1.450776047090E-01 -1.650371797955E-01 -3.223568734142E-01
C5  8.282074531729E-02  7.760566454737E-02  2.068402294983E-01
C6 -8.282074531729E-02 -7.760566454737E-02 -2.068402294983E-01
C7  1.083462472594E-01  1.979272240880E-01  1.341715146148E-01
C8 -1.083462472594E-01 -1.979272240880E-01 -1.341715146148E-01
C9  4.594888419169E-02  1.101005404598E-01  2.071376738784E-02
C10 -4.594888419169E-02 -1.101005404598E-01 -2.071376738784E-02
C11  7.076822163631E-02  2.306722519602E-01 -5.358466580594E-02
C12 -7.076822163631E-02 -2.306722519602E-01  5.358466580594E-02
C13 -8.234314274449E-03 -1.428683862093E-01  1.655063251118E-01
C14  8.234314274449E-03  1.428683862093E-01 -1.655063251118E-01
C15 -3.199446493953E-02 -2.650956283811E-01  2.415962257321E-01
C16  3.199446493953E-02  2.650956283811E-01 -2.415962257321E-01
C17  3.130440199751E-02 -1.765518090501E-01  3.512645876085E-01
C18 -3.130440199751E-02  1.765518090501E-01 -3.512645876085E-01
H19  1.704985188884E-01  1.105035486042E-01  4.809996612520E-01
H20 -1.704985188884E-01 -1.105035486042E-01 -4.809996612520E-01
H21  2.119991737247E-01  3.346643444585E-01  3.529446185899E-01
H22 -2.119991737247E-01 -3.346643444585E-01 -3.529446185899E-01
H23  1.788913780361E-01  3.653635137080E-01  1.656508008274E-01
H24 -1.788913780361E-01 -3.653635137080E-01 -1.656508008274E-01
H25  1.407037307519E-01  3.984280213961E-01 -2.206610467850E-02
H26 -1.407037307519E-01 -3.984280213961E-01  2.206610467850E-02
H27 -1.020470870693E-01 -4.324306626334E-01  2.098632367538E-01
H28  1.020470870693E-01  4.324306626334E-01 -2.098632367538E-01
H29  1.226180236855E-02 -2.734249264563E-01  4.086433968778E-01
H30 -1.226180236855E-02  2.734249264563E-01 -4.086433968778E-01
C31 -4.537917337406E-01 -4.245718177993E-01  3.814938614063E-01
C32  4.537917337406E-01  4.245718177993E-01 -3.814938614063E-01
C33  4.857972476010E-01 -3.084598604328E-01  2.955118993370E-01
C34 -4.857972476010E-01  3.084598604328E-01 -2.955118993370E-01
C35 -4.986474606056E-01 -4.064306653104E-01  1.934368818297E-01
C36  4.986474606056E-01  4.064306653104E-01 -1.934368818297E-01
C37  4.424131458003E-01 -2.910212797979E-01  1.049061054346E-01
C38 -4.424131458003E-01  2.910212797979E-01 -1.049061054346E-01
C39  4.601482317762E-01 -3.875711396208E-01  5.203820022622E-03
C40 -4.601482317762E-01  3.875711396208E-01 -5.203820022622E-03
C41  4.013579843860E-01 -2.717458371907E-01 -8.482813568845E-02
C42 -4.013579843860E-01  2.717458371907E-01  8.482813568845E-02
C43 -4.186619477004E-01  3.689647441727E-01  1.831500892110E-01
C44  4.186619477004E-01 -3.689647441727E-01 -1.831500892110E-01
C45 -3.567244927647E-01  2.540128140399E-01  2.756975486558E-01
C46  3.567244927647E-01 -2.540128140399E-01 -2.756975486558E-01
C47 -3.739705668052E-01  3.539108931366E-01  3.715302534298E-01
C48  3.739705668052E-01 -3.539108931366E-01 -3.715302534298E-01
H49 -4.656851461369E-01 -3.465499403744E-01  4.597154062801E-01
H50  4.656851461369E-01  3.465499403744E-01 -4.597154062801E-01
H51  4.247301993501E-01 -1.376409368863E-01  3.035329443423E-01
H52 -4.247301993501E-01  1.376409368863E-01 -3.035329443423E-01
H53  3.810330424394E-01 -1.201275461205E-01  1.127910850124E-01
H54 -3.810330424394E-01  1.201275461205E-01 -1.127910850124E-01
H55  3.398848198866E-01 -1.008935611277E-01 -7.692730788734E-02
H56 -3.398848198866E-01  1.008935611277E-01  7.692730788734E-02
H57 -2.941092165794E-01  8.401795339355E-02  2.681154590150E-01
H58  2.941092165794E-01 -8.401795339355E-02 -2.681154590150E-01
H59 -3.255403673020E-01  2.644671984463E-01  4.423614240683E-01
H60  3.255403673020E-01 -2.644671984463E-01 -4.423614240683E-01


#===END

data_OPT_STEP_34

_symmetry_space_group_name_H-M 'P 1'
_cell_length_a      7.94627574
_cell_length_b      6.01451703
_cell_length_c     13.53284361
_cell_angle_alpha  100.783383
_cell_angle_beta  112.809777
_cell_angle_gamma   86.221346

loop_
_atom_site_label
_atom_site_fract_x
_atom_site_fract_y
_atom_site_fract_z
C1  1.211048680182E-01  4.169834714855E-02  3.922851254615E-01
C2 -1.211048680182E-01 -4.169834714855E-02 -3.922851254615E-01
C3  1.451274093063E-01  1.649766541687E-01  3.223849277670E-01
C4 -1.451274093063E-01 -1.649766541687E-01 -3.223849277670E-01
C5  8.284579157585E-02  7.757058641217E-02  2.068537338050E-01
C6 -8.284579157585E-02 -7.757058641217E-02 -2.068537338050E-01
C7  1.084058457438E-01  1.979010801304E-01  1.341970469283E-01
C8 -1.084058457438E-01 -1.979010801304E-01 -1.341970469283E-01
C9  4.594382110563E-02  1.101184272907E-01  2.072338048620E-02
C10 -4.594382110563E-02 -1.101184272907E-01 -2.072338048620E-02
C11  7.073086926676E-02  2.307414688629E-01 -5.356938250402E-02
C12 -7.073086926676E-02 -2.307414688629E-01  5.356938250402E-02
C13 -8.217863788979E-03 -1.429271116203E-01  1.654995373109E-01
C14  8.217863788979E-03  1.429271116203E-01 -1.654995373109E-01
C15 -3.200715289313E-02 -2.651690486794E-01  2.415761510729E-01
C16  3.200715289313E-02  2.651690486794E-01 -2.415761510729E-01
C17  3.126109869938E-02 -1.766156278804E-01  3.512514354298E-01
C18 -3.126109869938E-02  1.766156278804E-01 -3.512514354298E-01
H19  1.705021087519E-01  1.104295944222E-01  4.810223904941E-01
H20 -1.705021087519E-01 -1.104295944222E-01 -4.810223904941E-01
H21  2.120711696988E-01  3.346162449073E-01  3.529933435374E-01
H22 -2.120711696988E-01 -3.346162449073E-01 -3.529933435374E-01
H23  1.789751427987E-01  3.653458678191E-01  1.656940896751E-01
H24 -1.789751427987E-01 -3.653458678191E-01 -1.656940896751E-01
H25  1.407471626456E-01  3.984754767410E-01 -2.202853690726E-02
H26 -1.407471626456E-01 -3.984754767410E-01  2.202853690726E-02
H27 -1.020781237869E-01 -4.325146862556E-01  2.098278285888E-01
H28  1.020781237869E-01  4.325146862556E-01 -2.098278285888E-01
H29  1.208394736643E-02 -2.734335595207E-01  4.086137843409E-01
H30 -1.208394736643E-02  2.734335595207E-01 -4.086137843409E-01
C31 -4.538129885859E-01 -4.244888645788E-01  3.815032938665E-01
C32  4.538129885859E-01  4.244888645788E-01 -3.815032938665E-01
C33  4.857767177987E-01 -3.083836436013E-01  2.955082628186E-01
C34 -4.857767177987E-01  3.083836436013E-01 -2.955082628186E-01
C35 -4.986261910644E-01 -4.063669255083E-01  1.934434621652E-01
C36  4.986261910644E-01  4.063669255083E-01 -1.934434621652E-01
C37  4.423846337457E-01 -2.909881006576E-01  1.048899308900E-01
C38 -4.423846337457E-01  2.909881006576E-01 -1.048899308900E-01
C39  4.601184312789E-01 -3.875697557493E-01  5.190075779535E-03
C40 -4.601184312789E-01  3.875697557493E-01 -5.190075779535E-03
C41  4.013618997294E-01 -2.717289500503E-01 -8.484699601131E-02
C42 -4.013618997294E-01  2.717289500503E-01  8.484699601131E-02
C43 -4.186865867166E-01  3.689731006071E-01  1.831619369752E-01
C44  4.186865867166E-01 -3.689731006071E-01 -1.831619369752E-01
C45 -3.567556780506E-01  2.540264567262E-01  2.757213758831E-01
C46  3.567556780506E-01 -2.540264567262E-01 -2.757213758831E-01
C47 -3.739797166496E-01  3.539741312688E-01  3.715584448793E-01
C48  3.739797166496E-01 -3.539741312688E-01 -3.715584448793E-01
H49 -4.657173992126E-01 -3.464373674818E-01  4.597213483164E-01
H50  4.657173992126E-01  3.464373674818E-01 -4.597213483164E-01
H51  4.247390119425E-01 -1.375257846837E-01  3.035258684619E-01
H52 -4.247390119425E-01  1.375257846837E-01 -3.035258684619E-01
H53  3.809813082542E-01 -1.200811233266E-01  1.127591772053E-01
H54 -3.809813082542E-01  1.200811233266E-01 -1.127591772053E-01
H55  3.398595763921E-01 -1.008651492819E-01 -7.696283775131E-02
H56 -3.398595763921E-01  1.008651492819E-01  7.696283775131E-02
H57 -2.941275155233E-01  8.401146609488E-02  2.681548651257E-01
H58  2.941275155233E-01 -8.401146609488E-02 -2.681548651257E-01
H59 -3.255216529698E-01  2.645502406410E-01  4.424069607631E-01
H60  3.255216529698E-01 -2.645502406410E-01 -4.424069607631E-01


#===END

data_OPT_STEP_35

_symmetry_space_group_name_H-M 'P 1'
_cell_length_a      7.94865581
_cell_length_b      6.01336957
_cell_length_c     13.53268688
_cell_angle_alpha  100.788972
_cell_angle_beta  112.817606
_cell_angle_gamma   86.221167

loop_
_atom_site_label
_atom_site_fract_x
_atom_site_fract_y
_atom_site_fract_z
C1  1.210805122707E-01  4.165072177739E-02  3.923013946214E-01
C2 -1.210805122707E-01 -4.165072177739E-02 -3.923013946214E-01
C3  1.451452418805E-01  1.649446848225E-01  3.224184746596E-01
C4 -1.451452418805E-01 -1.649446848225E-01 -3.224184746596E-01
C5  8.285841130903E-02  7.754687216463E-02  2.068708671701E-01
C6 -8.285841130903E-02 -7.754687216463E-02 -2.068708671701E-01
C7  1.084276973247E-01  1.979096306918E-01  1.342259497505E-01
C8 -1.084276973247E-01 -1.979096306918E-01 -1.342259497505E-01
C9  4.595588833203E-02  1.101312747078E-01  2.073803081204E-02
C10 -4.595588833203E-02 -1.101312747078E-01 -2.073803081204E-02
C11  7.079178508554E-02  2.307617932343E-01 -5.353875486692E-02
C12 -7.079178508554E-02 -2.307617932343E-01  5.353875486692E-02
C13 -8.259778242222E-03 -1.429587668083E-01  1.654842633668E-01
C14  8.259778242222E-03  1.429587668083E-01 -1.654842633668E-01
C15 -3.208097019903E-02 -2.652213106486E-01  2.415463519362E-01
C16  3.208097019903E-02  2.652213106486E-01 -2.415463519362E-01
C17  3.119523704738E-02 -1.766751711312E-01  3.512369502200E-01
C18 -3.119523704738E-02  1.766751711312E-01 -3.512369502200E-01
H19  1.704744252455E-01  1.103863649572E-01  4.810502092844E-01
H20 -1.704744252455E-01 -1.103863649572E-01 -4.810502092844E-01
H21  2.121126315366E-01  3.346012227572E-01  3.530552925360E-01
H22 -2.121126315366E-01 -3.346012227572E-01 -3.530552925360E-01
H23  1.790392471268E-01  3.653586677253E-01  1.657468047465E-01
H24 -1.790392471268E-01 -3.653586677253E-01 -1.657468047465E-01
H25  1.408230597998E-01  3.985166210306E-01 -2.197672408380E-02
H26 -1.408230597998E-01 -3.985166210306E-01  2.197672408380E-02
H27 -1.021930613464E-01 -4.325703976753E-01  2.097749609978E-01
H28  1.021930613464E-01  4.325703976753E-01 -2.097749609978E-01
H29  1.199871809245E-02 -2.735099577146E-01  4.085889594222E-01
H30 -1.199871809245E-02  2.735099577146E-01 -4.085889594222E-01
C31 -4.538483252301E-01 -4.244051329959E-01  3.815151729032E-01
C32  4.538483252301E-01  4.244051329959E-01 -3.815151729032E-01
C33  4.857344603066E-01 -3.083128853740E-01  2.955059354159E-01
C34 -4.857344603066E-01  3.083128853740E-01 -2.955059354159E-01
C35 -4.986812239339E-01 -4.063391014238E-01  1.934362656229E-01
C36  4.986812239339E-01  4.063391014238E-01 -1.934362656229E-01
C37  4.423775850284E-01 -2.909447011930E-01  1.048830090824E-01
C38 -4.423775850284E-01  2.909447011930E-01 -1.048830090824E-01
C39  4.601300156701E-01 -3.875525982920E-01  5.187923479522E-03
C40 -4.601300156701E-01  3.875525982920E-01 -5.187923479522E-03
C41  4.013767303925E-01 -2.717177871329E-01 -8.485917273249E-02
C42 -4.013767303925E-01  2.717177871329E-01  8.485917273249E-02
C43 -4.187146995078E-01  3.689895646613E-01  1.831720766140E-01
C44  4.187146995078E-01 -3.689895646613E-01 -1.831720766140E-01
C45 -3.567575210344E-01  2.540679568776E-01  2.757501921788E-01
C46  3.567575210344E-01 -2.540679568776E-01 -2.757501921788E-01
C47 -3.739666426583E-01  3.540582375702E-01  3.715914905490E-01
C48  3.739666426583E-01 -3.540582375702E-01 -3.715914905490E-01
H49 -4.657514235411E-01 -3.463202263750E-01  4.597348426604E-01
H50  4.657514235411E-01  3.463202263750E-01 -4.597348426604E-01
H51  4.246667363534E-01 -1.374477167962E-01  3.035080557212E-01
H52 -4.246667363534E-01  1.374477167962E-01 -3.035080557212E-01
H53  3.809822965055E-01 -1.200132523805E-01  1.127471964421E-01
H54 -3.809822965055E-01  1.200132523805E-01 -1.127471964421E-01
H55  3.398400783336E-01 -1.008485309774E-01 -7.698930145385E-02
H56 -3.398400783336E-01  1.008485309774E-01  7.698930145385E-02
H57 -2.940706730184E-01  8.405947981336E-02  2.682062322098E-01
H58  2.940706730184E-01 -8.405947981336E-02 -2.682062322098E-01
H59 -3.255061126097E-01  2.646407451822E-01  4.424503415109E-01
H60  3.255061126097E-01 -2.646407451822E-01 -4.424503415109E-01


#===END

data_OPT_STEP_36

_symmetry_space_group_name_H-M 'P 1'
_cell_length_a      7.95368938
_cell_length_b      6.01127400
_cell_length_c     13.53263308
_cell_angle_alpha  100.793716
_cell_angle_beta  112.843448
_cell_angle_gamma   86.219528

loop_
_atom_site_label
_atom_site_fract_x
_atom_site_fract_y
_atom_site_fract_z
C1  1.210183806634E-01  4.163575362624E-02  3.923399610126E-01
C2 -1.210183806634E-01 -4.163575362624E-02 -3.923399610126E-01
C3  1.450893606761E-01  1.649838641663E-01  3.224752426076E-01
C4 -1.450893606761E-01 -1.649838641663E-01 -3.224752426076E-01
C5  8.282273859186E-02  7.756627825527E-02  2.069012422208E-01
C6 -8.282273859186E-02 -7.756627825527E-02 -2.069012422208E-01
C7  1.084458357506E-01  1.979482688009E-01  1.342786572528E-01
C8 -1.084458357506E-01 -1.979482688009E-01 -1.342786572528E-01
C9  4.596465080179E-02  1.101602487451E-01  2.076215574917E-02
C10 -4.596465080179E-02 -1.101602487451E-01 -2.076215574917E-02
C11  7.085262625182E-02  2.308095917720E-01 -5.349341522331E-02
C12 -7.085262625182E-02 -2.308095917720E-01  5.349341522331E-02
C13 -8.334253837687E-03 -1.429829799875E-01  1.654654382706E-01
C14  8.334253837687E-03  1.429829799875E-01 -1.654654382706E-01
C15 -3.217509527661E-02 -2.652974252354E-01  2.415082320562E-01
C16  3.217509527661E-02  2.652974252354E-01 -2.415082320562E-01
C17  3.110403564592E-02 -1.767418133671E-01  3.512295977612E-01
C18 -3.110403564592E-02  1.767418133671E-01 -3.512295977612E-01
H19  1.703675385152E-01  1.104123279650E-01  4.811046978228E-01
H20 -1.703675385152E-01 -1.104123279650E-01 -4.811046978228E-01
H21  2.121167192449E-01  3.346552489664E-01  3.531631443757E-01
H22 -2.121167192449E-01 -3.346552489664E-01 -3.531631443757E-01
H23  1.791223960837E-01  3.654072625695E-01  1.658409013666E-01
H24 -1.791223960837E-01 -3.654072625695E-01 -1.658409013666E-01
H25  1.409291685718E-01  3.985855311337E-01 -2.189425483377E-02
H26 -1.409291685718E-01 -3.985855311337E-01  2.189425483377E-02
H27 -1.023493986438E-01 -4.326567676952E-01  2.096952656034E-01
H28  1.023493986438E-01  4.326567676952E-01 -2.096952656034E-01
H29  1.191987031144E-02 -2.736236155884E-01  4.085703868911E-01
H30 -1.191987031144E-02  2.736236155884E-01 -4.085703868911E-01
C31 -4.539325379718E-01 -4.242415586009E-01  3.815267265657E-01
C32  4.539325379718E-01  4.242415586009E-01 -3.815267265657E-01
C33  4.855992794606E-01 -3.081928312218E-01  2.954720624313E-01
C34 -4.855992794606E-01  3.081928312218E-01 -2.954720624313E-01
C35 -4.987781843213E-01 -4.062726757997E-01  1.934186769775E-01
C36  4.987781843213E-01  4.062726757997E-01 -1.934186769775E-01
C37  4.423272089634E-01 -2.908721705710E-01  1.048440185237E-01
C38 -4.423272089634E-01  2.908721705710E-01 -1.048440185237E-01
C39  4.601363592918E-01 -3.875235042232E-01  5.169215134210E-03
C40 -4.601363592918E-01  3.875235042232E-01 -5.169215134210E-03
C41  4.013774042932E-01 -2.717094971199E-01 -8.491068338930E-02
C42 -4.013774042932E-01  2.717094971199E-01  8.491068338930E-02
C43 -4.187351321154E-01  3.690403352340E-01  1.832134721158E-01
C44  4.187351321154E-01 -3.690403352340E-01 -1.832134721158E-01
C45 -3.567619347394E-01  2.541469372408E-01  2.758272782117E-01
C46  3.567619347394E-01 -2.541469372408E-01 -2.758272782117E-01
C47 -3.740228345644E-01  3.541812546001E-01  3.716503425656E-01
C48  3.740228345644E-01 -3.541812546001E-01 -3.716503425656E-01
H49 -4.658054160920E-01 -3.460794419932E-01  4.597469717136E-01
H50  4.658054160920E-01  3.460794419932E-01 -4.597469717136E-01
H51  4.244780420837E-01 -1.373110315339E-01  3.034294371698E-01
H52 -4.244780420837E-01  1.373110315339E-01 -3.034294371698E-01
H53  3.809106572417E-01 -1.199108024647E-01  1.126736632937E-01
H54 -3.809106572417E-01  1.199108024647E-01 -1.126736632937E-01
H55  3.397854086365E-01 -1.008263676390E-01 -7.708212536990E-02
H56 -3.397854086365E-01  1.008263676390E-01  7.708212536990E-02
H57 -2.941153037180E-01  8.407862490680E-02  2.683057518754E-01
H58  2.941153037180E-01 -8.407862490680E-02 -2.683057518754E-01
H59 -3.255724693922E-01  2.647725067264E-01  4.425317297221E-01
H60  3.255724693922E-01 -2.647725067264E-01 -4.425317297221E-01


#===END

data_OPT_STEP_37

_symmetry_space_group_name_H-M 'P 1'
_cell_length_a      7.96455324
_cell_length_b      6.00686644
_cell_length_c     13.53249935
_cell_angle_alpha  100.792157
_cell_angle_beta  112.882531
_cell_angle_gamma   86.216781

loop_
_atom_site_label
_atom_site_fract_x
_atom_site_fract_y
_atom_site_fract_z
C1  1.210069039773E-01  4.155704891939E-02  3.924053600077E-01
C2 -1.210069039773E-01 -4.155704891939E-02 -3.924053600077E-01
C3  1.451942737773E-01  1.649192277338E-01  3.225678385458E-01
C4 -1.451942737773E-01 -1.649192277338E-01 -3.225678385458E-01
C5  8.287083064711E-02  7.752733356895E-02  2.069544745425E-01
C6 -8.287083064711E-02 -7.752733356895E-02 -2.069544745425E-01
C7  1.084916573629E-01  1.979942190853E-01  1.343482463620E-01
C8 -1.084916573629E-01 -1.979942190853E-01 -1.343482463620E-01
C9  4.603088940661E-02  1.101727229345E-01  2.079587561000E-02
C10 -4.603088940661E-02 -1.101727229345E-01 -2.079587561000E-02
C11  7.103581063340E-02  2.308317136016E-01 -5.343277598386E-02
C12 -7.103581063340E-02 -2.308317136016E-01  5.343277598386E-02
C13 -8.440653900302E-03 -1.430403487422E-01  1.654482900278E-01
C14  8.440653900302E-03  1.430403487422E-01 -1.654482900278E-01
C15 -3.237082379916E-02 -2.653887385043E-01  2.414667242051E-01
C16  3.237082379916E-02  2.653887385043E-01 -2.414667242051E-01
C17  3.099652357433E-02 -1.768728530660E-01  3.512356819621E-01
C18 -3.099652357433E-02  1.768728530660E-01 -3.512356819621E-01
H19  1.704354134536E-01  1.102983052597E-01  4.812028040512E-01
H20 -1.704354134536E-01 -1.102983052597E-01 -4.812028040512E-01
H21  2.123083875831E-01  3.346236661038E-01  3.533092236188E-01
H22 -2.123083875831E-01 -3.346236661038E-01 -3.533092236188E-01
H23  1.791680413472E-01  3.655333444200E-01  1.659524496086E-01
H24 -1.791680413472E-01 -3.655333444200E-01 -1.659524496086E-01
H25  1.412249589676E-01  3.986214740897E-01 -2.178207415097E-02
H26 -1.412249589676E-01 -3.986214740897E-01  2.178207415097E-02
H27 -1.025610236832E-01 -4.328169967275E-01  2.096084435764E-01
H28  1.025610236832E-01  4.328169967275E-01 -2.096084435764E-01
H29  1.186234924625E-02 -2.738568058130E-01  4.085664052911E-01
H30 -1.186234924625E-02  2.738568058130E-01 -4.085664052911E-01
C31 -4.540310763208E-01 -4.239027062402E-01  3.815603187020E-01
C32  4.540310763208E-01  4.239027062402E-01 -3.815603187020E-01
C33  4.855668113987E-01 -3.078436255631E-01  2.954483078505E-01
C34 -4.855668113987E-01  3.078436255631E-01 -2.954483078505E-01
C35 -4.987647984236E-01 -4.060427876413E-01  1.934258880243E-01
C36  4.987647984236E-01  4.060427876413E-01 -1.934258880243E-01
C37  4.423462350235E-01 -2.906621736860E-01  1.047857002577E-01
C38 -4.423462350235E-01  2.906621736860E-01 -1.047857002577E-01
C39  4.601112890345E-01 -3.874756182407E-01  5.117066228589E-03
C40 -4.601112890345E-01  3.874756182407E-01 -5.117066228589E-03
C41  4.013421768743E-01 -2.716954174862E-01 -8.503161624189E-02
C42 -4.013421768743E-01  2.716954174862E-01  8.503161624189E-02
C43 -4.187092626854E-01  3.691564942927E-01  1.833145109341E-01
C44  4.187092626854E-01 -3.691564942927E-01 -1.833145109341E-01
C45 -3.566926559895E-01  2.543207323120E-01  2.760044371679E-01
C46  3.566926559895E-01 -2.543207323120E-01 -2.760044371679E-01
C47 -3.740036312180E-01  3.544566520777E-01  3.717982328462E-01
C48  3.740036312180E-01 -3.544566520777E-01 -3.717982328462E-01
H49 -4.659216284055E-01 -3.456318972545E-01  4.597611563948E-01
H50  4.659216284055E-01  3.456318972545E-01 -4.597611563948E-01
H51  4.244645316545E-01 -1.368622249202E-01  3.033385157062E-01
H52 -4.244645316545E-01  1.368622249202E-01 -3.033385157062E-01
H53  3.809985314832E-01 -1.195781281869E-01  1.125623452832E-01
H54 -3.809985314832E-01  1.195781281869E-01 -1.125623452832E-01
H55  3.397537326253E-01 -1.007235307623E-01 -7.727027437792E-02
H56 -3.397537326253E-01  1.007235307623E-01  7.727027437792E-02
H57 -2.938750160710E-01  8.425283743382E-02  2.685893794739E-01
H58  2.938750160710E-01 -8.425283743382E-02 -2.685893794739E-01
H59 -3.254999896104E-01  2.650918326188E-01  4.427411388398E-01
H60  3.254999896104E-01 -2.650918326188E-01 -4.427411388398E-01


#===END

data_OPT_STEP_38

_symmetry_space_group_name_H-M 'P 1'
_cell_length_a      7.96362646
_cell_length_b      6.00604571
_cell_length_c     13.53063116
_cell_angle_alpha  100.860768
_cell_angle_beta  112.890955
_cell_angle_gamma   86.199013

loop_
_atom_site_label
_atom_site_fract_x
_atom_site_fract_y
_atom_site_fract_z
C1  1.209597283976E-01  4.108199361872E-02  3.924374208304E-01
C2 -1.209597283976E-01 -4.108199361872E-02 -3.924374208304E-01
C3  1.451907457901E-01  1.646314360740E-01  3.227110045840E-01
C4 -1.451907457901E-01 -1.646314360740E-01 -3.227110045840E-01
C5  8.282965191735E-02  7.736434251199E-02  2.070208964790E-01
C6 -8.282965191735E-02 -7.736434251199E-02 -2.070208964790E-01
C7  1.086528069618E-01  1.978803021566E-01  1.345335128715E-01
C8 -1.086528069618E-01 -1.978803021566E-01 -1.345335128715E-01
C9  4.612454152259E-02  1.101623493617E-01  2.089944025191E-02
C10 -4.612454152259E-02 -1.101623493617E-01 -2.089944025191E-02
C11  7.128876559905E-02  2.308899755465E-01 -5.321357045804E-02
C12 -7.128876559905E-02 -2.308899755465E-01  5.321357045804E-02
C13 -8.720749472976E-03 -1.431472661906E-01  1.653006317978E-01
C14  8.720749472976E-03  1.431472661906E-01 -1.653006317978E-01
C15 -3.284658404222E-02 -2.655765717350E-01  2.411961857432E-01
C16  3.284658404222E-02  2.655765717350E-01 -2.411961857432E-01
C17  3.057689374500E-02 -1.772049559567E-01  3.510391749550E-01
C18 -3.057689374500E-02  1.772049559567E-01 -3.510391749550E-01
H19  1.704628114942E-01  1.097052862925E-01  4.813087571832E-01
H20 -1.704628114942E-01 -1.097052862925E-01 -4.813087571832E-01
H21  2.123903802568E-01  3.343684360444E-01  3.536199321222E-01
H22 -2.123903802568E-01 -3.343684360444E-01 -3.536199321222E-01
H23  1.797065300464E-01  3.652748052323E-01  1.663176515925E-01
H24 -1.797065300464E-01 -3.652748052323E-01 -1.663176515925E-01
H25  1.414354881786E-01  3.987664855988E-01 -2.142096967738E-02
H26 -1.414354881786E-01 -3.987664855988E-01  2.142096967738E-02
H27 -1.033556413297E-01 -4.328888128115E-01  2.091562719504E-01
H28  1.033556413297E-01  4.328888128115E-01 -2.091562719504E-01
H29  1.117598766068E-02 -2.741723203847E-01  4.082600316104E-01
H30 -1.117598766068E-02  2.741723203847E-01 -4.082600316104E-01
C31 -4.541445624125E-01 -4.232784101856E-01  3.816549643500E-01
C32  4.541445624125E-01  4.232784101856E-01 -3.816549643500E-01
C33  4.853843419227E-01 -3.074093449165E-01  2.955248595436E-01
C34 -4.853843419227E-01  3.074093449165E-01 -2.955248595436E-01
C35 -4.989390779142E-01 -4.058095111204E-01  1.934537538333E-01
C36  4.989390779142E-01  4.058095111204E-01 -1.934537538333E-01
C37  4.422191524868E-01 -2.904963965976E-01  1.048173645241E-01
C38 -4.422191524868E-01  2.904963965976E-01 -1.048173645241E-01
C39  4.601309508989E-01 -3.874246526802E-01  5.138679590503E-03
C40 -4.601309508989E-01  3.874246526802E-01 -5.138679590503E-03
C41  4.013850313849E-01 -2.717163491459E-01 -8.501090415019E-02
C42 -4.013850313849E-01  2.717163491459E-01  8.501090415019E-02
C43 -4.188326770750E-01  3.693331552417E-01  1.833180928395E-01
C44  4.188326770750E-01 -3.693331552417E-01 -1.833180928395E-01
C45 -3.567783780754E-01  2.546559604431E-01  2.760328574490E-01
C46  3.567783780754E-01 -2.546559604431E-01 -2.760328574490E-01
C47 -3.739891098219E-01  3.550894121320E-01  3.718934310410E-01
C48  3.739891098219E-01 -3.550894121320E-01 -3.718934310410E-01
H49 -4.662186189573E-01 -3.448772769516E-01  4.598478204957E-01
H50  4.662186189573E-01  3.448772769516E-01 -4.598478204957E-01
H51  4.241507539832E-01 -1.364445277267E-01  3.034098290991E-01
H52 -4.241507539832E-01  1.364445277267E-01 -3.034098290991E-01
H53  3.807104835798E-01 -1.194390757987E-01  1.125859519678E-01
H54 -3.807104835798E-01  1.194390757987E-01 -1.125859519678E-01
H55  3.397065688732E-01 -1.007285703650E-01 -7.724582170086E-02
H56 -3.397065688732E-01  1.007285703650E-01  7.724582170086E-02
H57 -2.938723259206E-01  8.457965012495E-02  2.686177272869E-01
H58  2.938723259206E-01 -8.457965012495E-02 -2.686177272869E-01
H59 -3.254851612248E-01  2.658413702251E-01  4.428502941455E-01
H60  3.254851612248E-01 -2.658413702251E-01 -4.428502941455E-01


#===END

data_OPT_STEP_39

_symmetry_space_group_name_H-M 'P 1'
_cell_length_a      7.96366107
_cell_length_b      6.00666681
_cell_length_c     13.53165044
_cell_angle_alpha  100.806192
_cell_angle_beta  112.884228
_cell_angle_gamma   86.211025

loop_
_atom_site_label
_atom_site_fract_x
_atom_site_fract_y
_atom_site_fract_z
C1  1.210047150311E-01  4.145604884803E-02  3.924207457588E-01
C2 -1.210047150311E-01 -4.145604884803E-02 -3.924207457588E-01
C3  1.451838116553E-01  1.648736269700E-01  3.226018839683E-01
C4 -1.451838116553E-01 -1.648736269700E-01 -3.226018839683E-01
C5  8.286689027598E-02  7.749799668567E-02  2.069722832073E-01
C6 -8.286689027598E-02 -7.749799668567E-02 -2.069722832073E-01
C7  1.085507597951E-01  1.979596021046E-01  1.343884801096E-01
C8 -1.085507597951E-01 -1.979596021046E-01 -1.343884801096E-01
C9  4.604932224150E-02  1.101703466448E-01  2.081572201614E-02
C10 -4.604932224150E-02 -1.101703466448E-01 -2.081572201614E-02
C11  7.106694300312E-02  2.308525680459E-01 -5.339437483469E-02
C12 -7.106694300312E-02 -2.308525680459E-01  5.339437483469E-02
C13 -8.480738908153E-03 -1.430635960129E-01  1.654247545887E-01
C14  8.480738908153E-03  1.430635960129E-01 -1.654247545887E-01
C15 -3.244433813678E-02 -2.654329064480E-01  2.414226967393E-01
C16  3.244433813678E-02  2.654329064480E-01 -2.414226967393E-01
C17  3.090261155480E-02 -1.769311035685E-01  3.512025514137E-01
C18 -3.090261155480E-02  1.769311035685E-01 -3.512025514137E-01
H19  1.704571314890E-01  1.101657349774E-01  4.812372926869E-01
H20 -1.704571314890E-01 -1.101657349774E-01 -4.812372926869E-01
H21  2.123181020210E-01  3.345856169957E-01  3.533807556190E-01
H22 -2.123181020210E-01 -3.345856169957E-01 -3.533807556190E-01
H23  1.793534740984E-01  3.654417428974E-01  1.660335705780E-01
H24 -1.793534740984E-01 -3.654417428974E-01 -1.660335705780E-01
H25  1.411877393368E-01  3.986925766046E-01 -2.172111405720E-02
H26 -1.411877393368E-01 -3.986925766046E-01  2.172111405720E-02
H27 -1.027402710051E-01 -4.328173700390E-01  2.095229380160E-01
H28  1.027402710051E-01  4.328173700390E-01 -2.095229380160E-01
H29  1.163279590147E-02 -2.738616806574E-01  4.085068302236E-01
H30 -1.163279590147E-02  2.738616806574E-01 -4.085068302236E-01
C31 -4.540267187442E-01 -4.237225434366E-01  3.815978186618E-01
C32  4.540267187442E-01  4.237225434366E-01 -3.815978186618E-01
C33  4.855369899088E-01 -3.077284520943E-01  2.954734612853E-01
C34 -4.855369899088E-01  3.077284520943E-01 -2.954734612853E-01
C35 -4.988119058344E-01 -4.059908128917E-01  1.934331593253E-01
C36  4.988119058344E-01  4.059908128917E-01 -1.934331593253E-01
C37  4.423000937971E-01 -2.906274064694E-01  1.047871876577E-01
C38 -4.423000937971E-01  2.906274064694E-01 -1.047871876577E-01
C39  4.601175428074E-01 -3.874606090580E-01  5.119885285843E-03
C40 -4.601175428074E-01  3.874606090580E-01 -5.119885285843E-03
C41  4.013433751696E-01 -2.716966415722E-01 -8.503567225606E-02
C42 -4.013433751696E-01  2.716966415722E-01  8.503567225606E-02
C43 -4.187272715465E-01  3.692012838777E-01  1.833251247244E-01
C44  4.187272715465E-01 -3.692012838777E-01 -1.833251247244E-01
C45 -3.567418296443E-01  2.543860545415E-01  2.760198934437E-01
C46  3.567418296443E-01 -2.543860545415E-01 -2.760198934437E-01
C47 -3.740034115773E-01  3.546232883492E-01  3.718358681165E-01
C48  3.740034115773E-01 -3.546232883492E-01 -3.718358681165E-01
H49 -4.659988421521E-01 -3.454085832233E-01  4.597871540665E-01
H50  4.659988421521E-01  3.454085832233E-01 -4.597871540665E-01
H51  4.243601813153E-01 -1.367716685252E-01  3.033480551330E-01
H52 -4.243601813153E-01  1.367716685252E-01 -3.033480551330E-01
H53  3.808540191339E-01 -1.195765292980E-01  1.125442538058E-01
H54 -3.808540191339E-01  1.195765292980E-01 -1.125442538058E-01
H55  3.397396341629E-01 -1.007138708002E-01 -7.727682429262E-02
H56 -3.397396341629E-01  1.007138708002E-01  7.727682429262E-02
H57 -2.939308443059E-01  8.430010735731E-02  2.686038461094E-01
H58  2.939308443059E-01 -8.430010735731E-02 -2.686038461094E-01
H59 -3.255218351919E-01  2.652809495753E-01  4.427837101082E-01
H60  3.255218351919E-01 -2.652809495753E-01 -4.427837101082E-01


#===END

data_OPT_STEP_40

_symmetry_space_group_name_H-M 'P 1'
_cell_length_a      7.96451288
_cell_length_b      6.00672517
_cell_length_c     13.53276867
_cell_angle_alpha  100.820232
_cell_angle_beta  112.918091
_cell_angle_gamma   86.214179

loop_
_atom_site_label
_atom_site_fract_x
_atom_site_fract_y
_atom_site_fract_z
C1  1.208015550175E-01  4.134402508599E-02  3.924003041404E-01
C2 -1.208015550175E-01 -4.134402508599E-02 -3.924003041404E-01
C3  1.450356758355E-01  1.648108428203E-01  3.226408427672E-01
C4 -1.450356758355E-01 -1.648108428203E-01 -3.226408427672E-01
C5  8.273468455441E-02  7.746947184411E-02  2.069809466019E-01
C6 -8.273468455441E-02 -7.746947184411E-02 -2.069809466019E-01
C7  1.085270557289E-01  1.979483592126E-01  1.344618599842E-01
C8 -1.085270557289E-01 -1.979483592126E-01 -1.344618599842E-01
C9  4.607423891674E-02  1.101773175464E-01  2.086319284711E-02
C10 -4.607423891674E-02 -1.101773175464E-01 -2.086319284711E-02
C11  7.119383101717E-02  2.308815754809E-01 -5.328562751937E-02
C12 -7.119383101717E-02 -2.308815754809E-01  5.328562751937E-02
C13 -8.661663161292E-03 -1.431009843519E-01  1.653440093927E-01
C14  8.661663161292E-03  1.431009843519E-01 -1.653440093927E-01
C15 -3.270499766363E-02 -2.655098627634E-01  2.412754922155E-01
C16  3.270499766363E-02  2.655098627634E-01 -2.412754922155E-01
C17  3.064919924951E-02 -1.770574497769E-01  3.510877431863E-01
C18 -3.064919924951E-02  1.770574497769E-01 -3.510877431863E-01
H19  1.702556015875E-01  1.100237136009E-01  4.812430094762E-01
H20 -1.702556015875E-01 -1.100237136009E-01 -4.812430094762E-01
H21  2.121433500871E-01  3.345694850707E-01  3.534733195662E-01
H22 -2.121433500871E-01 -3.345694850707E-01 -3.534733195662E-01
H23  1.793653139045E-01  3.654407120532E-01  1.661769793932E-01
H24 -1.793653139045E-01 -3.654407120532E-01 -1.661769793932E-01
H25  1.413451239782E-01  3.987347819889E-01 -2.154305829865E-02
H26 -1.413451239782E-01 -3.987347819889E-01  2.154305829865E-02
H27 -1.030224428319E-01 -4.329025034468E-01  2.093105761162E-01
H28  1.030224428319E-01  4.329025034468E-01 -2.093105761162E-01
H29  1.137919574464E-02 -2.740521243146E-01  4.083504444160E-01
H30 -1.137919574464E-02  2.740521243146E-01 -4.083504444160E-01
C31 -4.542291003653E-01 -4.236969629703E-01  3.815510219189E-01
C32  4.542291003653E-01  4.236969629703E-01 -3.815510219189E-01
C33  4.853137426212E-01 -3.077522195962E-01  2.954095919775E-01
C34 -4.853137426212E-01  3.077522195962E-01 -2.954095919775E-01
C35 -4.990019606728E-01 -4.060280607356E-01  1.933840935750E-01
C36  4.990019606728E-01  4.060280607356E-01 -1.933840935750E-01
C37  4.421730010424E-01 -2.906696482693E-01  1.047399682952E-01
C38 -4.421730010424E-01  2.906696482693E-01 -1.047399682952E-01
C39  4.601115955463E-01 -3.874672300617E-01  5.110692603636E-03
C40 -4.601115955463E-01  3.874672300617E-01 -5.110692603636E-03
C41  4.014176006683E-01 -2.716999355417E-01 -8.504025271365E-02
C42 -4.014176006683E-01  2.716999355417E-01  8.504025271365E-02
C43 -4.189220961945E-01  3.691700007445E-01  1.832934244415E-01
C44  4.189220961945E-01 -3.691700007445E-01 -1.832934244415E-01
C45 -3.569369161173E-01  2.543938741310E-01  2.759994294480E-01
C46  3.569369161173E-01 -2.543938741310E-01 -2.759994294480E-01
C47 -3.742031019148E-01  3.546581784085E-01  3.718075004622E-01
C48  3.742031019148E-01 -3.546581784085E-01 -3.718075004622E-01
H49 -4.661047699490E-01 -3.453134865219E-01  4.597552147029E-01
H50  4.661047699490E-01  3.453134865219E-01 -4.597552147029E-01
H51  4.241560601023E-01 -1.367940304765E-01  3.032752470769E-01
H52 -4.241560601023E-01  1.367940304765E-01 -3.032752470769E-01
H53  3.807319564809E-01 -1.196234134101E-01  1.124840951760E-01
H54 -3.807319564809E-01  1.196234134101E-01 -1.124840951760E-01
H55  3.397597546397E-01 -1.007520430840E-01 -7.730581364121E-02
H56 -3.397597546397E-01  1.007520430840E-01  7.730581364121E-02
H57 -2.941229712231E-01  8.431699498406E-02  2.685971053855E-01
H58  2.941229712231E-01 -8.431699498406E-02 -2.685971053855E-01
H59 -3.256818610379E-01  2.653631623364E-01  4.427712955645E-01
H60  3.256818610379E-01 -2.653631623364E-01 -4.427712955645E-01


#===END

data_OPT_STEP_41

_symmetry_space_group_name_H-M 'P 1'
_cell_length_a      7.96436531
_cell_length_b      6.00718134
_cell_length_c     13.53313602
_cell_angle_alpha  100.820748
_cell_angle_beta  112.923843
_cell_angle_gamma   86.207502

loop_
_atom_site_label
_atom_site_fract_x
_atom_site_fract_y
_atom_site_fract_z
C1  1.208046754281E-01  4.143524724802E-02  3.924047705675E-01
C2 -1.208046754281E-01 -4.143524724802E-02 -3.924047705675E-01
C3  1.450013834329E-01  1.648817141640E-01  3.226344709937E-01
C4 -1.450013834329E-01 -1.648817141640E-01 -3.226344709937E-01
C5  8.270794892321E-02  7.751653392708E-02  2.069761609502E-01
C6 -8.270794892321E-02 -7.751653392708E-02 -2.069761609502E-01
C7  1.085325701085E-01  1.979400365694E-01  1.344558755557E-01
C8 -1.085325701085E-01 -1.979400365694E-01 -1.344558755557E-01
C9  4.606671379156E-02  1.101693755397E-01  2.085860986322E-02
C10 -4.606671379156E-02 -1.101693755397E-01 -2.085860986322E-02
C11  7.115422598311E-02  2.308611878552E-01 -5.329704793841E-02
C12 -7.115422598311E-02 -2.308611878552E-01  5.329704793841E-02
C13 -8.630530769505E-03 -1.430644989252E-01  1.653525101799E-01
C14  8.630530769505E-03  1.430644989252E-01 -1.653525101799E-01
C15 -3.264062942951E-02 -2.654488645164E-01  2.412942892469E-01
C16  3.264062942951E-02  2.654488645164E-01 -2.412942892469E-01
C17  3.069879490429E-02 -1.769703698134E-01  3.511038640618E-01
C18 -3.069879490429E-02  1.769703698134E-01 -3.511038640618E-01
H19  1.702368894044E-01  1.101375257059E-01  4.812434708229E-01
H20 -1.702368894044E-01 -1.101375257059E-01 -4.812434708229E-01
H21  2.121028193458E-01  3.346273196001E-01  3.534541042890E-01
H22 -2.121028193458E-01 -3.346273196001E-01 -3.534541042890E-01
H23  1.793405999679E-01  3.654307719526E-01  1.661638844911E-01
H24 -1.793405999679E-01 -3.654307719526E-01 -1.661638844911E-01
H25  1.413163284277E-01  3.986933127977E-01 -2.155727038832E-02
H26 -1.413163284277E-01 -3.986933127977E-01  2.155727038832E-02
H27 -1.029299531134E-01 -4.328440759026E-01  2.093365820859E-01
H28  1.029299531134E-01  4.328440759026E-01 -2.093365820859E-01
H29  1.141237769371E-02 -2.739262645046E-01  4.083704119426E-01
H30 -1.141237769371E-02  2.739262645046E-01 -4.083704119426E-01
C31 -4.542400459638E-01 -4.236802678743E-01  3.815435944628E-01
C32  4.542400459638E-01  4.236802678743E-01 -3.815435944628E-01
C33  4.853418910896E-01 -3.077197388597E-01  2.954066868062E-01
C34 -4.853418910896E-01  3.077197388597E-01 -2.954066868062E-01
C35 -4.989696327469E-01 -4.059974764496E-01  1.933859164797E-01
C36  4.989696327469E-01  4.059974764496E-01 -1.933859164797E-01
C37  4.422022799490E-01 -2.906541849460E-01  1.047390293861E-01
C38 -4.422022799490E-01  2.906541849460E-01 -1.047390293861E-01
C39  4.601195455736E-01 -3.874673470126E-01  5.108999660853E-03
C40 -4.601195455736E-01  3.874673470126E-01 -5.108999660853E-03
C41  4.014348022823E-01 -2.717068132542E-01 -8.504193175843E-02
C42 -4.014348022823E-01  2.717068132542E-01  8.504193175843E-02
C43 -4.188957444325E-01  3.692054335714E-01  1.833011460987E-01
C44  4.188957444325E-01 -3.692054335714E-01 -1.833011460987E-01
C45 -3.569344405761E-01  2.544255522253E-01  2.760057411507E-01
C46  3.569344405761E-01 -2.544255522253E-01 -2.760057411507E-01
C47 -3.742445926191E-01  3.546649523944E-01  3.717984995555E-01
C48  3.742445926191E-01 -3.546649523944E-01 -3.717984995555E-01
H49 -4.661256273258E-01 -3.452975563947E-01  4.597426509262E-01
H50  4.661256273258E-01  3.452975563947E-01 -4.597426509262E-01
H51  4.241721088238E-01 -1.367703376139E-01  3.032641392980E-01
H52 -4.241721088238E-01  1.367703376139E-01 -3.032641392980E-01
H53  3.807612733666E-01 -1.196095435612E-01  1.124770805481E-01
H54 -3.807612733666E-01  1.196095435612E-01 -1.124770805481E-01
H55  3.397935184265E-01 -1.007537000200E-01 -7.730964603894E-02
H56 -3.397935184265E-01  1.007537000200E-01  7.730964603894E-02
H57 -2.941893555383E-01  8.431599181206E-02  2.685923056847E-01
H58  2.941893555383E-01 -8.431599181206E-02 -2.685923056847E-01
H59 -3.257546487613E-01  2.653575911347E-01  4.427561826208E-01
H60  3.257546487613E-01 -2.653575911347E-01 -4.427561826208E-01


#===END

data_OPT_STEP_42

_symmetry_space_group_name_H-M 'P 1'
_cell_length_a      7.96435180
_cell_length_b      6.00726838
_cell_length_c     13.53313577
_cell_angle_alpha  100.821863
_cell_angle_beta  112.924406
_cell_angle_gamma   86.206131

loop_
_atom_site_label
_atom_site_fract_x
_atom_site_fract_y
_atom_site_fract_z
C1  1.208060210607E-01  4.145341117741E-02  3.924086256894E-01
C2 -1.208060210607E-01 -4.145341117741E-02 -3.924086256894E-01
C3  1.449973032176E-01  1.648947881030E-01  3.226364621176E-01
C4 -1.449973032176E-01 -1.648947881030E-01 -3.226364621176E-01
C5  8.271045424558E-02  7.752063989877E-02  2.069778530070E-01
C6 -8.271045424558E-02 -7.752063989877E-02 -2.069778530070E-01
C7  1.085230923328E-01  1.979463867960E-01  1.344562380602E-01
C8 -1.085230923328E-01 -1.979463867960E-01 -1.344562380602E-01
C9  4.606427101920E-02  1.101691686446E-01  2.085872541294E-02
C10 -4.606427101920E-02 -1.101691686446E-01 -2.085872541294E-02
C11  7.114788540219E-02  2.308586429027E-01 -5.329678372460E-02
C12 -7.114788540219E-02 -2.308586429027E-01  5.329678372460E-02
C13 -8.628051107900E-03 -1.430575499674E-01  1.653526965173E-01
C14  8.628051107900E-03  1.430575499674E-01 -1.653526965173E-01
C15 -3.263427268341E-02 -2.654360650841E-01  2.412968686456E-01
C16  3.263427268341E-02  2.654360650841E-01 -2.412968686456E-01
C17  3.070397231070E-02 -1.769518308005E-01  3.511079993472E-01
C18 -3.070397231070E-02  1.769518308005E-01 -3.511079993472E-01
H19  1.702275727383E-01  1.101638523911E-01  4.812465445388E-01
H20 -1.702275727383E-01 -1.101638523911E-01 -4.812465445388E-01
H21  2.121052896131E-01  3.346346380911E-01  3.534559603707E-01
H22 -2.121052896131E-01 -3.346346380911E-01 -3.534559603707E-01
H23  1.793317707268E-01  3.654334914596E-01  1.661660833669E-01
H24 -1.793317707268E-01 -3.654334914596E-01 -1.661660833669E-01
H25  1.413202167085E-01  3.986830113000E-01 -2.155451705587E-02
H26 -1.413202167085E-01 -3.986830113000E-01  2.155451705587E-02
H27 -1.029255649969E-01 -4.328289937282E-01  2.093376020642E-01
H28  1.029255649969E-01  4.328289937282E-01 -2.093376020642E-01
H29  1.142395056571E-02 -2.739067739926E-01  4.083752360511E-01
H30 -1.142395056571E-02  2.739067739926E-01 -4.083752360511E-01
C31 -4.542328500705E-01 -4.236512317137E-01  3.815475272534E-01
C32  4.542328500705E-01  4.236512317137E-01 -3.815475272534E-01
C33  4.853439700526E-01 -3.076998480843E-01  2.954077833662E-01
C34 -4.853439700526E-01  3.076998480843E-01 -2.954077833662E-01
C35 -4.989572277783E-01 -4.059790550173E-01  1.933894062845E-01
C36  4.989572277783E-01  4.059790550173E-01 -1.933894062845E-01
C37  4.422120390424E-01 -2.906432220086E-01  1.047408548144E-01
C38 -4.422120390424E-01  2.906432220086E-01 -1.047408548144E-01
C39  4.601200481261E-01 -3.874671682179E-01  5.108100274655E-03
C40 -4.601200481261E-01  3.874671682179E-01 -5.108100274655E-03
C41  4.014382049377E-01 -2.717110482292E-01 -8.504317254103E-02
C42 -4.014382049377E-01  2.717110482292E-01  8.504317254103E-02
C43 -4.188896737463E-01  3.692206163446E-01  1.833050102416E-01
C44  4.188896737463E-01 -3.692206163446E-01 -1.833050102416E-01
C45 -3.569311500440E-01  2.544456907398E-01  2.760109617389E-01
C46  3.569311500440E-01 -2.544456907398E-01 -2.760109617389E-01
C47 -3.742392138631E-01  3.546914664622E-01  3.718040955492E-01
C48  3.742392138631E-01 -3.546914664622E-01 -3.718040955492E-01
H49 -4.661374412326E-01 -3.452673749776E-01  4.597419808950E-01
H50  4.661374412326E-01  3.452673749776E-01 -4.597419808950E-01
H51  4.241908598537E-01 -1.367414156829E-01  3.032667441456E-01
H52 -4.241908598537E-01  1.367414156829E-01 -3.032667441456E-01
H53  3.807680218905E-01 -1.195998858979E-01  1.124770828352E-01
H54 -3.807680218905E-01  1.195998858979E-01 -1.124770828352E-01
H55  3.398086353987E-01 -1.007522113096E-01 -7.730970687062E-02
H56 -3.398086353987E-01  1.007522113096E-01  7.730970687062E-02
H57 -2.941841005111E-01  8.433674949689E-02  2.685993201750E-01
H58  2.941841005111E-01 -8.433674949689E-02 -2.685993201750E-01
H59 -3.257455772935E-01  2.653905920227E-01  4.427638210422E-01
H60  3.257455772935E-01 -2.653905920227E-01 -4.427638210422E-01


#===END

data_OPT_STEP_43

_symmetry_space_group_name_H-M 'P 1'
_cell_length_a      7.96435180
_cell_length_b      6.00726838
_cell_length_c     13.53313577
_cell_angle_alpha  100.821863
_cell_angle_beta  112.924406
_cell_angle_gamma   86.206131

loop_
_atom_site_label
_atom_site_fract_x
_atom_site_fract_y
_atom_site_fract_z
C1  1.208060210607E-01  4.145341117741E-02  3.924086256894E-01
C2 -1.208060210607E-01 -4.145341117741E-02 -3.924086256894E-01
C3  1.449973032176E-01  1.648947881030E-01  3.226364621176E-01
C4 -1.449973032176E-01 -1.648947881030E-01 -3.226364621176E-01
C5  8.271045424558E-02  7.752063989877E-02  2.069778530070E-01
C6 -8.271045424558E-02 -7.752063989877E-02 -2.069778530070E-01
C7  1.085230923328E-01  1.979463867960E-01  1.344562380602E-01
C8 -1.085230923328E-01 -1.979463867960E-01 -1.344562380602E-01
C9  4.606427101920E-02  1.101691686446E-01  2.085872541294E-02
C10 -4.606427101920E-02 -1.101691686446E-01 -2.085872541294E-02
C11  7.114788540219E-02  2.308586429027E-01 -5.329678372460E-02
C12 -7.114788540219E-02 -2.308586429027E-01  5.329678372460E-02
C13 -8.628051107900E-03 -1.430575499674E-01  1.653526965173E-01
C14  8.628051107900E-03  1.430575499674E-01 -1.653526965173E-01
C15 -3.263427268341E-02 -2.654360650841E-01  2.412968686456E-01
C16  3.263427268341E-02  2.654360650841E-01 -2.412968686456E-01
C17  3.070397231070E-02 -1.769518308005E-01  3.511079993472E-01
C18 -3.070397231070E-02  1.769518308005E-01 -3.511079993472E-01
H19  1.702275727383E-01  1.101638523911E-01  4.812465445388E-01
H20 -1.702275727383E-01 -1.101638523911E-01 -4.812465445388E-01
H21  2.121052896131E-01  3.346346380911E-01  3.534559603707E-01
H22 -2.121052896131E-01 -3.346346380911E-01 -3.534559603707E-01
H23  1.793317707268E-01  3.654334914596E-01  1.661660833669E-01
H24 -1.793317707268E-01 -3.654334914596E-01 -1.661660833669E-01
H25  1.413202167085E-01  3.986830113000E-01 -2.155451705587E-02
H26 -1.413202167085E-01 -3.986830113000E-01  2.155451705587E-02
H27 -1.029255649969E-01 -4.328289937282E-01  2.093376020642E-01
H28  1.029255649969E-01  4.328289937282E-01 -2.093376020642E-01
H29  1.142395056571E-02 -2.739067739926E-01  4.083752360511E-01
H30 -1.142395056571E-02  2.739067739926E-01 -4.083752360511E-01
C31 -4.542328500705E-01 -4.236512317137E-01  3.815475272534E-01
C32  4.542328500705E-01  4.236512317137E-01 -3.815475272534E-01
C33  4.853439700526E-01 -3.076998480843E-01  2.954077833662E-01
C34 -4.853439700526E-01  3.076998480843E-01 -2.954077833662E-01
C35 -4.989572277783E-01 -4.059790550173E-01  1.933894062845E-01
C36  4.989572277783E-01  4.059790550173E-01 -1.933894062845E-01
C37  4.422120390424E-01 -2.906432220086E-01  1.047408548144E-01
C38 -4.422120390424E-01  2.906432220086E-01 -1.047408548144E-01
C39  4.601200481261E-01 -3.874671682179E-01  5.108100274655E-03
C40 -4.601200481261E-01  3.874671682179E-01 -5.108100274655E-03
C41  4.014382049377E-01 -2.717110482292E-01 -8.504317254103E-02
C42 -4.014382049377E-01  2.717110482292E-01  8.504317254103E-02
C43 -4.188896737463E-01  3.692206163446E-01  1.833050102416E-01
C44  4.188896737463E-01 -3.692206163446E-01 -1.833050102416E-01
C45 -3.569311500440E-01  2.544456907398E-01  2.760109617389E-01
C46  3.569311500440E-01 -2.544456907398E-01 -2.760109617389E-01
C47 -3.742392138631E-01  3.546914664622E-01  3.718040955492E-01
C48  3.742392138631E-01 -3.546914664622E-01 -3.718040955492E-01
H49 -4.661374412326E-01 -3.452673749776E-01  4.597419808950E-01
H50  4.661374412326E-01  3.452673749776E-01 -4.597419808950E-01
H51  4.241908598537E-01 -1.367414156829E-01  3.032667441456E-01
H52 -4.241908598537E-01  1.367414156829E-01 -3.032667441456E-01
H53  3.807680218905E-01 -1.195998858979E-01  1.124770828352E-01
H54 -3.807680218905E-01  1.195998858979E-01 -1.124770828352E-01
H55  3.398086353987E-01 -1.007522113096E-01 -7.730970687062E-02
H56 -3.398086353987E-01  1.007522113096E-01  7.730970687062E-02
H57 -2.941841005111E-01  8.433674949689E-02  2.685993201750E-01
H58  2.941841005111E-01 -8.433674949689E-02 -2.685993201750E-01
H59 -3.257455772935E-01  2.653905920227E-01  4.427638210422E-01
H60  3.257455772935E-01 -2.653905920227E-01 -4.427638210422E-01


#===END
