###############################################################
#
#primitive cell cif file
#
###############################################################

negm18_data

_symmetry_space_group_name_H-M 'P 1'
_cell_length_a      13.86596031
_cell_length_b      13.86596031
_cell_length_c      14.21100000
_cell_angle_alpha   90.000000
_cell_angle_beta    90.000000
_cell_angle_gamma   150.032293

loop_
_atom_site_label
_atom_site_fract_x
_atom_site_fract_y
_atom_site_fract_z
C1 2.929443881579E-02 -2.552378432625E-02 -1.767499665259E-03
C2 -8.746176886522E-02 -1.938257873543E-01 4.803400507044E-02
C3 1.980941819558E-01 9.168589138844E-02 -5.119621026979E-02
C4 -2.552378432625E-02 2.929443881579E-02 -1.767499665259E-03
C5 -2.636621988404E-01 -3.173756556394E-01 8.714480841193E-02
C6 -2.428959695061E-02 -2.392466670410E-01 7.290294647337E-02
C7 3.218850933218E-01 2.681234071992E-01 -8.994964394877E-02
C8 2.427610714345E-01 2.721582893648E-02 -7.363968421723E-02
C9 9.168589138844E-02 1.980941819558E-01 -5.119621026979E-02
C10 -1.938257873543E-01 -8.746176886522E-02 4.803400507044E-02
C11 -3.173756556394E-01 -2.636621988404E-01 8.714480841193E-02
C12 -3.891689828238E-01 -4.929224509754E-01 1.339458539797E-01
C13 -1.051615538393E-01 -3.907946276379E-01 3.086641356583E-02
C14 1.006154140858E-01 -1.442577035739E-01 1.488991095487E-01
C15 2.681234071992E-01 3.218850933218E-01 -8.994964394877E-02
C16 4.986912020343E-01 3.948219751155E-01 -1.355755553210E-01
C17 3.907356082956E-01 1.050337187833E-01 -2.860827136598E-02
C18 1.459440011584E-01 -1.018808711458E-01 -1.476256475200E-01
C19 2.721582893648E-02 2.427610714345E-01 -7.363968421723E-02
C20 -2.392466670410E-01 -2.428959695061E-02 7.290294647337E-02
C21 -4.929224509754E-01 -3.891689828238E-01 1.339458539797E-01
H22 -3.490748078397E-01 4.666676921128E-01 1.363246201659E-01
C23 4.440942125436E-01 3.912285074260E-01 1.757978132877E-01
H24 -2.020122334229E-01 -4.657090305729E-01 -2.823803890205E-02
C25 -6.416677171901E-02 -4.470195651708E-01 6.457808301745E-02
H26 1.629120080856E-01 -2.772243992882E-02 1.826659411219E-01
C27 1.445411874647E-01 -1.979802993177E-01 1.820404484943E-01
C28 3.948219751155E-01 4.986912020343E-01 -1.355755553210E-01
H29 -4.610135910690E-01 3.545483235914E-01 -1.376871397231E-01
C30 -3.841791898804E-01 -4.370782206075E-01 -1.761928627243E-01
H31 4.664996283983E-01 2.044407662781E-01 2.924833510485E-02
C32 4.405318067940E-01 5.558543645345E-02 -5.690738808268E-02
H33 3.186791166558E-02 -1.623145410832E-01 -1.836104604951E-01
C34 1.936198707509E-01 -1.537690694798E-01 -1.755147623870E-01
C35 1.050337187833E-01 3.907356082956E-01 -2.860827136598E-02
C36 -1.018808711458E-01 1.459440011584E-01 -1.476256475200E-01
C37 -3.907946276379E-01 -1.051615538393E-01 3.086641356583E-02
C38 -1.442577035739E-01 1.006154140858E-01 1.488991095487E-01
H39 4.666676921128E-01 -3.490748078397E-01 1.363246201659E-01
C40 3.912285074260E-01 4.440942125436E-01 1.757978132877E-01
H41 3.526566107514E-01 2.601707417443E-01 2.110067717242E-01
H42 -1.302132548528E-01 4.333470042402E-01 3.212208863148E-02
C43 6.152199148112E-02 -3.504610451425E-01 1.401023355595E-01
H44 2.433330786087E-01 -1.204778999953E-01 2.406766014929E-01
H45 3.545483235914E-01 -4.610135910690E-01 -1.376871397231E-01
C46 -4.370782206075E-01 -3.841791898804E-01 -1.761928627243E-01
H47 -2.516875453390E-01 -3.440440828733E-01 -2.102344675639E-01
H48 -4.435860249010E-01 1.181630765713E-01 -2.158837356724E-02
C49 3.419120754465E-01 -7.455300101641E-02 -1.302677560646E-01
H50 1.145869203532E-01 -2.558827890988E-01 -2.325960770630E-01
H51 2.044407662781E-01 4.664996283983E-01 2.924833510485E-02
C52 5.558543645345E-02 4.405318067940E-01 -5.690738808268E-02
H53 -1.623145410832E-01 3.186791166558E-02 -1.836104604951E-01
C54 -1.537690694798E-01 1.936198707509E-01 -1.755147623870E-01
H55 -4.657090305729E-01 -2.020122334229E-01 -2.823803890205E-02
C56 -4.470195651708E-01 -6.416677171901E-02 6.457808301745E-02
H57 -2.772243992882E-02 1.629120080856E-01 1.826659411219E-01
C58 -1.979802993177E-01 1.445411874647E-01 1.820404484943E-01
H59 2.601707417443E-01 3.526566107514E-01 2.110067717242E-01
H60 9.350434926418E-02 -3.946976188380E-01 1.655840826949E-01
H61 -3.440440828733E-01 -2.516875453390E-01 -2.102344675639E-01
H62 3.811312748093E-01 -1.129997899312E-01 -1.519213285831E-01
H63 1.181630765713E-01 -4.435860249010E-01 -2.158837356724E-02
C64 -7.455300101641E-02 3.419120754465E-01 -1.302677560646E-01
H65 -2.558827890988E-01 1.145869203532E-01 -2.325960770630E-01
H66 4.333470042402E-01 -1.302132548528E-01 3.212208863148E-02
C67 -3.504610451425E-01 6.152199148112E-02 1.401023355595E-01
H68 -1.204778999953E-01 2.433330786087E-01 2.406766014929E-01
H69 -1.129997899312E-01 3.811312748093E-01 -1.519213285831E-01
H70 -3.946976188380E-01 9.350434926418E-02 1.655840826949E-01
C71 4.744762156738E-01 -4.707055611842E-01 -4.982325003347E-01
C72 -4.083141086116E-01 -3.019058180442E-01 -4.488037897302E-01
C73 3.061742126457E-01 4.125382311348E-01 4.519659949296E-01
C74 -4.707055611842E-01 4.744762156738E-01 -4.982325003347E-01
C75 -2.318765928008E-01 -1.781149066782E-01 -4.100503560512E-01
C76 -4.727841710635E-01 -2.572389285655E-01 -4.263603157828E-01
C77 1.826243443606E-01 2.363378011596E-01 4.128551915881E-01
C78 2.607533329590E-01 4.757104030494E-01 4.270970535266E-01
C79 4.125382311348E-01 3.061742126457E-01 4.519659949296E-01
C80 -3.019058180442E-01 -4.083141086116E-01 -4.488037897302E-01
C81 -1.781149066782E-01 -2.318765928008E-01 -4.100503560512E-01
C82 -1.051780248845E-01 -1.308797965737E-03 -3.644244446790E-01
C83 -3.949662812167E-01 -1.092643917044E-01 -4.713917286340E-01
C84 3.981191288542E-01 -3.540559988416E-01 -3.523743524800E-01
C85 2.363378011596E-01 1.826243443606E-01 4.128551915881E-01
C86 7.077549024604E-03 1.108310171762E-01 3.660541460203E-01
C87 1.092053723621E-01 3.948384461607E-01 4.691335864342E-01
C88 3.557422964261E-01 -3.993845859142E-01 3.511008904513E-01
C89 4.757104030494E-01 2.607533329590E-01 4.270970535266E-01
C90 -2.572389285655E-01 -4.727841710635E-01 -4.263603157828E-01
C91 -1.308797965737E-03 -1.051780248845E-01 -3.644244446790E-01
H92 -1.454516764086E-01 3.898640893102E-02 -3.623128602769E-01
C93 6.292177939252E-02 1.158208101196E-01 -3.238071372757E-01
H94 -2.955592337219E-01 -3.350037160169E-02 4.707516648952E-01
C95 -4.444145635465E-01 -5.946819320603E-02 -4.430926119173E-01
H96 3.376854589168E-01 -4.681320883344E-01 -3.163895395049E-01
C97 3.462309305202E-01 -3.063801292491E-01 -3.244852376130E-01
C98 1.108310171762E-01 7.077549024604E-03 3.660541460203E-01
H99 -3.333230788724E-02 1.509251921603E-01 3.636753798341E-01
C100 -1.087714925740E-01 -5.590578745639E-02 3.242021867123E-01
H101 3.429096942712E-02 2.979877665771E-01 -4.717619610980E-01
C102 5.298043482920E-02 4.358332282810E-01 4.354219169825E-01
H103 4.722775600712E-01 -3.370879919144E-01 3.173340588781E-01
C104 3.020197006823E-01 -3.554588125353E-01 3.179595515057E-01
C105 3.948384461607E-01 1.092053723621E-01 4.691335864342E-01
C106 -3.993845859142E-01 3.557422964261E-01 3.511008904513E-01
C107 -1.092643917044E-01 -3.949662812167E-01 -4.713917286340E-01
C108 -3.540559988416E-01 3.981191288542E-01 -3.523743524800E-01
H109 3.898640893102E-02 -1.454516764086E-01 -3.623128602769E-01
C110 1.158208101196E-01 6.292177939252E-02 -3.238071372757E-01
H111 1.559559171267E-01 2.483124546610E-01 -2.897655324361E-01
H112 -3.818369234287E-01 5.641397509899E-02 -4.784116264328E-01
C113 4.254469989836E-01 -1.580879245535E-01 -3.697322439354E-01
H114 2.441172109012E-01 -3.854130796468E-01 -2.674039229370E-01
H115 1.509251921603E-01 -3.333230788724E-02 3.636753798341E-01
C116 -5.590578745639E-02 -1.087714925740E-01 3.242021867123E-01
H117 -2.398292582557E-01 -1.473433892486E-01 2.889932282758E-01
H118 -6.665299575978E-02 3.697867451472E-01 4.678779113685E-01
C119 1.495389548575E-01 -4.384780085189E-01 3.598976644405E-01
H120 3.795221000047E-01 -2.566669213913E-01 2.593233985071E-01
H121 2.979877665771E-01 3.429096942712E-02 -4.717619610980E-01
C122 4.358332282810E-01 5.298043482920E-02 4.354219169825E-01
H123 -3.370879919144E-01 4.722775600712E-01 3.173340588781E-01
C124 -3.554588125353E-01 3.020197006823E-01 3.179595515057E-01
H125 -3.350037160169E-02 -2.955592337219E-01 4.707516648952E-01
C126 -5.946819320603E-02 -4.444145635465E-01 -4.430926119173E-01
H127 -4.681320883344E-01 3.376854589168E-01 -3.163895395049E-01
C128 -3.063801292491E-01 3.462309305202E-01 -3.244852376130E-01
H129 2.483124546610E-01 1.559559171267E-01 -2.897655324361E-01
H130 3.870002100688E-01 -1.188687251907E-01 -3.480786714169E-01
H131 -1.473433892486E-01 -2.398292582557E-01 2.889932282758E-01
H132 1.053023811620E-01 -4.064956507358E-01 3.344159173051E-01
H133 3.697867451472E-01 -6.665299575978E-02 4.678779113685E-01
C134 -4.384780085189E-01 1.495389548575E-01 3.598976644405E-01
H135 -2.566669213913E-01 3.795221000047E-01 2.593233985071E-01
H136 5.641397509899E-02 -3.818369234287E-01 -4.784116264328E-01
C137 -1.580879245535E-01 4.254469989836E-01 -3.697322439354E-01
H138 -3.854130796468E-01 2.441172109012E-01 -2.674039229370E-01
H139 -4.064956507358E-01 1.053023811620E-01 3.344159173051E-01
H140 -1.188687251907E-01 3.870002100688E-01 -3.480786714169E-01


#===END
