###############################################################
#
#primitive cell cif file
#
###############################################################

negm41_data

_symmetry_space_group_name_H-M 'P 1'
_cell_length_a      13.86596031
_cell_length_b      13.86596031
_cell_length_c      14.21100000
_cell_angle_alpha   90.000000
_cell_angle_beta    90.000000
_cell_angle_gamma   150.032293

loop_
_atom_site_label
_atom_site_fract_x
_atom_site_fract_y
_atom_site_fract_z
C1 2.735024127832E-02 -2.735024127832E-02 0.000000000000E+00
C2 -9.141581248746E-02 -1.976458355298E-01 4.824289889888E-02
C3 1.976458355298E-01 9.141581248746E-02 -4.824289889888E-02
C4 -2.735024127832E-02 2.735024127832E-02 0.000000000000E+00
C5 -2.677068585659E-01 -3.214252693842E-01 8.715298111062E-02
C6 -2.723822154820E-02 -2.421482389385E-01 7.199262061537E-02
C7 3.214252693842E-01 2.677068585659E-01 -8.715298111062E-02
C8 2.421482389385E-01 2.723822154820E-02 -7.199262061537E-02
C9 9.141581248746E-02 1.976458355298E-01 -4.824289889888E-02
C10 -1.976458355298E-01 -9.141581248746E-02 4.824289889888E-02
C11 -3.214252693842E-01 -2.677068585659E-01 8.715298111062E-02
C12 -3.920153742189E-01 -4.958576221111E-01 1.347868133872E-01
C13 -1.038933943902E-01 -3.899456400151E-01 2.805661207079E-02
C14 9.839996428325E-02 -1.464776545826E-01 1.476564792578E-01
C15 2.677068585659E-01 3.214252693842E-01 -8.715298111062E-02
C16 4.958576221111E-01 3.920153742189E-01 -1.347868133872E-01
C17 3.899456400151E-01 1.038933943902E-01 -2.805661207079E-02
C18 1.464776545826E-01 -9.839996428325E-02 -1.476564792578E-01
C19 2.723822154820E-02 2.421482389385E-01 -7.199262061537E-02
C20 -2.421482389385E-01 -2.723822154820E-02 7.199262061537E-02
C21 -4.958576221111E-01 -3.920153742189E-01 1.347868133872E-01
H22 -3.518728888677E-01 4.637248067606E-01 1.367491924831E-01
C23 4.434443240530E-01 3.905465507289E-01 1.785435580545E-01
H24 -2.010556358765E-01 -4.650923566061E-01 -3.090108260791E-02
C25 -5.685458198647E-02 -4.410374012715E-01 5.937617079094E-02
H26 1.575124072140E-01 -3.258811770015E-02 1.825433107739E-01
C27 1.480776064610E-01 -1.952426786624E-01 1.784699149829E-01
C28 3.920153742189E-01 4.958576221111E-01 -1.347868133872E-01
H29 -4.637248067606E-01 3.518728888677E-01 -1.367491924831E-01
C30 -3.905465507289E-01 -4.434443240530E-01 -1.785435580545E-01
H31 4.650923566061E-01 2.010556358765E-01 3.090108260791E-02
C32 4.410374012715E-01 5.685458198647E-02 -5.937617079094E-02
H33 3.258811770015E-02 -1.575124072140E-01 -1.825433107739E-01
C34 1.952426786624E-01 -1.480776064610E-01 -1.784699149829E-01
C35 1.038933943902E-01 3.899456400151E-01 -2.805661207079E-02
C36 -9.839996428325E-02 1.464776545826E-01 -1.476564792578E-01
C37 -3.899456400151E-01 -1.038933943902E-01 2.805661207079E-02
C38 -1.464776545826E-01 9.839996428325E-02 1.476564792578E-01
H39 4.637248067606E-01 -3.518728888677E-01 1.367491924831E-01
C40 3.905465507289E-01 4.434443240530E-01 1.785435580545E-01
H41 3.534537374472E-01 2.609424413059E-01 2.149594013497E-01
H42 -1.193812543284E-01 4.423789839242E-01 2.536561880107E-02
C43 6.997501322402E-02 -3.435177739836E-01 1.344197823741E-01
H44 2.476654875840E-01 -1.171097495274E-01 2.367791638721E-01
H45 3.518728888677E-01 -4.637248067606E-01 -1.367491924831E-01
C46 -4.434443240530E-01 -3.905465507289E-01 -1.785435580545E-01
H47 -2.609424413059E-01 -3.534537374472E-01 -2.149594013497E-01
H48 -4.423789839242E-01 1.193812543284E-01 -2.536561880107E-02
C49 3.435177739836E-01 -6.997501322402E-02 -1.344197823741E-01
H50 1.171097495274E-01 -2.476654875840E-01 -2.367791638721E-01
H51 2.010556358765E-01 4.650923566061E-01 3.090108260791E-02
C52 5.685458198647E-02 4.410374012715E-01 -5.937617079094E-02
H53 -1.575124072140E-01 3.258811770015E-02 -1.825433107739E-01
C54 -1.480776064610E-01 1.952426786624E-01 -1.784699149829E-01
H55 -4.650923566061E-01 -2.010556358765E-01 -3.090108260791E-02
C56 -4.410374012715E-01 -5.685458198647E-02 5.937617079094E-02
H57 -3.258811770015E-02 1.575124072140E-01 1.825433107739E-01
C58 -1.952426786624E-01 1.480776064610E-01 1.784699149829E-01
H59 2.609424413059E-01 3.534537374472E-01 2.149594013497E-01
H60 1.065391267049E-01 -3.838340357411E-01 1.581992252198E-01
H61 -3.534537374472E-01 -2.609424413059E-01 -2.149594013497E-01
H62 3.838340357411E-01 -1.065391267049E-01 -1.581992252198E-01
H63 1.193812543284E-01 -4.423789839242E-01 -2.536561880107E-02
C64 -6.997501322402E-02 3.435177739836E-01 -1.344197823741E-01
H65 -2.476654875840E-01 1.171097495274E-01 -2.367791638721E-01
H66 4.423789839242E-01 -1.193812543284E-01 2.536561880107E-02
C67 -3.435177739836E-01 6.997501322402E-02 1.344197823741E-01
H68 -1.171097495274E-01 2.476654875840E-01 2.367791638721E-01
H69 -1.065391267049E-01 3.838340357411E-01 -1.581992252198E-01
H70 -3.838340357411E-01 1.065391267049E-01 1.581992252198E-01
C71 4.726497587217E-01 -4.726497587217E-01 -5.000000000000E-01
C72 -4.085841875125E-01 -3.023541644702E-01 -4.517571011011E-01
C73 3.023541644702E-01 4.085841875125E-01 4.517571011011E-01
C74 -4.726497587217E-01 4.726497587217E-01 -5.000000000000E-01
C75 -2.322931414341E-01 -1.785747306158E-01 -4.128470188894E-01
C76 -4.727617784518E-01 -2.578517610615E-01 -4.280073793846E-01
C77 1.785747306158E-01 2.322931414341E-01 4.128470188894E-01
C78 2.578517610615E-01 4.727617784518E-01 4.280073793846E-01
C79 4.085841875125E-01 3.023541644702E-01 4.517571011011E-01
C80 -3.023541644702E-01 -4.085841875125E-01 -4.517571011011E-01
C81 -1.785747306158E-01 -2.322931414341E-01 -4.128470188894E-01
C82 -1.079846257811E-01 -4.142377888947E-03 -3.652131866128E-01
C83 -3.961066056098E-01 -1.100543599849E-01 -4.719433879292E-01
C84 4.016000357167E-01 -3.535223454174E-01 -3.523435207422E-01
C85 2.322931414341E-01 1.785747306158E-01 4.128470188894E-01
C86 4.142377888947E-03 1.079846257811E-01 3.652131866128E-01
C87 1.100543599849E-01 3.961066056098E-01 4.719433879292E-01
C88 3.535223454174E-01 -4.016000357167E-01 3.523435207422E-01
C89 4.727617784518E-01 2.578517610615E-01 4.280073793846E-01
C90 -2.578517610615E-01 -4.727617784518E-01 -4.280073793846E-01
C91 -4.142377888947E-03 -1.079846257811E-01 -3.652131866128E-01
H92 -1.481271111323E-01 3.627519323942E-02 -3.632508075169E-01
C93 5.655567594700E-02 1.094534492711E-01 -3.214564419455E-01
H94 -2.989443641235E-01 -3.490764339394E-02 4.690989173921E-01
C95 -4.431454180135E-01 -5.896259872845E-02 -4.406238292091E-01
H96 3.424875927860E-01 -4.674118822999E-01 -3.174566892261E-01
C97 3.519223935390E-01 -3.047573213376E-01 -3.215300850171E-01
C98 1.079846257811E-01 4.142377888947E-03 3.652131866128E-01
H99 -3.627519323942E-02 1.481271111323E-01 3.632508075169E-01
C100 -1.094534492711E-01 -5.655567594700E-02 3.214564419455E-01
H101 3.490764339394E-02 2.989443641235E-01 -4.690989173921E-01
C102 5.896259872845E-02 4.431454180135E-01 4.406238292091E-01
H103 4.674118822999E-01 -3.424875927860E-01 3.174566892261E-01
C104 3.047573213376E-01 -3.519223935390E-01 3.215300850171E-01
C105 3.961066056098E-01 1.100543599849E-01 4.719433879292E-01
C106 -4.016000357167E-01 3.535223454174E-01 3.523435207422E-01
C107 -1.100543599849E-01 -3.961066056098E-01 -4.719433879292E-01
C108 -3.535223454174E-01 4.016000357167E-01 -3.523435207422E-01
H109 3.627519323942E-02 -1.481271111323E-01 -3.632508075169E-01
C110 1.094534492711E-01 5.655567594700E-02 -3.214564419455E-01
H111 1.465462625528E-01 2.390575586941E-01 -2.850405986503E-01
H112 -3.806187456716E-01 5.762101607581E-02 -4.746343811989E-01
C113 4.300249867760E-01 -1.564822260164E-01 -3.655802176259E-01
H114 2.523345124160E-01 -3.828902504726E-01 -2.632208361279E-01
H115 1.481271111323E-01 -3.627519323942E-02 3.632508075169E-01
C116 -5.655567594700E-02 -1.094534492711E-01 3.214564419455E-01
H117 -2.390575586941E-01 -1.465462625528E-01 2.850405986503E-01
H118 -5.762101607581E-02 3.806187456716E-01 4.746343811989E-01
C119 1.564822260164E-01 -4.300249867760E-01 3.655802176259E-01
H120 3.828902504726E-01 -2.523345124160E-01 2.632208361279E-01
H121 2.989443641235E-01 3.490764339394E-02 -4.690989173921E-01
C122 4.431454180135E-01 5.896259872845E-02 4.406238292091E-01
H123 -3.424875927860E-01 4.674118822999E-01 3.174566892261E-01
C124 -3.519223935390E-01 3.047573213376E-01 3.215300850171E-01
H125 -3.490764339394E-02 -2.989443641235E-01 4.690989173921E-01
C126 -5.896259872845E-02 -4.431454180135E-01 -4.406238292091E-01
H127 -4.674118822999E-01 3.424875927860E-01 -3.174566892261E-01
C128 -3.047573213376E-01 3.519223935390E-01 -3.215300850171E-01
H129 2.390575586941E-01 1.465462625528E-01 -2.850405986503E-01
H130 3.934608732951E-01 -1.161659642589E-01 -3.418007747802E-01
H131 -1.465462625528E-01 -2.390575586941E-01 2.850405986503E-01
H132 1.161659642589E-01 -3.934608732951E-01 3.418007747802E-01
H133 3.806187456716E-01 -5.762101607581E-02 4.746343811989E-01
C134 -4.300249867760E-01 1.564822260164E-01 3.655802176259E-01
H135 -2.523345124160E-01 3.828902504726E-01 2.632208361279E-01
H136 5.762101607581E-02 -3.806187456716E-01 -4.746343811989E-01
C137 -1.564822260164E-01 4.300249867760E-01 -3.655802176259E-01
H138 -3.828902504726E-01 2.523345124160E-01 -2.632208361279E-01
H139 -3.934608732951E-01 1.161659642589E-01 3.418007747802E-01
H140 -1.161659642589E-01 3.934608732951E-01 -3.418007747802E-01


#===END
