###############################################################
#
#primitive cell cif file
#
###############################################################

negm36_data

_symmetry_space_group_name_H-M 'P 1'
_cell_length_a      13.86596031
_cell_length_b      13.86596031
_cell_length_c      14.21100000
_cell_angle_alpha   90.000000
_cell_angle_beta    90.000000
_cell_angle_gamma   150.032293

loop_
_atom_site_label
_atom_site_fract_x
_atom_site_fract_y
_atom_site_fract_z
C1 2.746007799339E-02 -2.746007799339E-02 0.000000000000E+00
C2 -8.910043923752E-02 -1.956954075812E-01 4.990354941165E-02
C3 1.956954075812E-01 8.910043923752E-02 -4.990354941165E-02
C4 -2.746007799339E-02 2.746007799339E-02 0.000000000000E+00
C5 -2.653084799681E-01 -3.190731737293E-01 8.897810844360E-02
C6 -2.587106407272E-02 -2.415434291931E-01 7.343690036225E-02
C7 3.190731737293E-01 2.653084799681E-01 -8.897810844360E-02
C8 2.415434291931E-01 2.587106407272E-02 -7.343690036225E-02
C9 8.910043923752E-02 1.956954075812E-01 -4.990354941165E-02
C10 -1.956954075812E-01 -8.910043923752E-02 4.990354941165E-02
C11 -3.190731737293E-01 -2.653084799681E-01 8.897810844360E-02
C12 -3.916601368868E-01 -4.953995068473E-01 1.351389155701E-01
C13 -1.093071476265E-01 -3.947184774092E-01 3.129308995384E-02
C14 1.039026582079E-01 -1.437615550732E-01 1.472418241749E-01
C15 2.653084799681E-01 3.190731737293E-01 -8.897810844360E-02
C16 4.953995068473E-01 3.916601368868E-01 -1.351389155701E-01
C17 3.947184774092E-01 1.093071476265E-01 -3.129308995384E-02
C18 1.437615550732E-01 -1.039026582079E-01 -1.472418241749E-01
C19 2.587106407272E-02 2.415434291931E-01 -7.343690036225E-02
C20 -2.415434291931E-01 -2.587106407272E-02 7.343690036225E-02
C21 -4.953995068473E-01 -3.916601368868E-01 1.351389155701E-01
H22 -3.515145938752E-01 4.642350793899E-01 1.375401302214E-01
C23 4.405494124789E-01 3.876943704957E-01 1.760708291706E-01
H24 -2.090185830449E-01 -4.711514540558E-01 -2.650180572549E-02
C25 -6.639953697122E-02 -4.498966088807E-01 6.276815014235E-02
H26 1.689286643274E-01 -2.558579682333E-02 1.811363340558E-01
C27 1.494449547470E-01 -1.966871138131E-01 1.782381662914E-01
C28 3.916601368868E-01 4.953995068473E-01 -1.351389155701E-01
H29 -4.642350793899E-01 3.515145938752E-01 -1.375401302214E-01
C30 -3.876943704957E-01 -4.405494124789E-01 -1.760708291706E-01
H31 4.711514540558E-01 2.090185830449E-01 2.650180572549E-02
C32 4.498966088807E-01 6.639953697122E-02 -6.276815014235E-02
H33 2.558579682333E-02 -1.689286643274E-01 -1.811363340558E-01
C34 1.966871138131E-01 -1.494449547470E-01 -1.782381662914E-01
C35 1.093071476265E-01 3.947184774092E-01 -3.129308995384E-02
C36 -1.039026582079E-01 1.437615550732E-01 -1.472418241749E-01
C37 -3.947184774092E-01 -1.093071476265E-01 3.129308995384E-02
C38 -1.437615550732E-01 1.039026582079E-01 1.472418241749E-01
H39 4.642350793899E-01 -3.515145938752E-01 1.375401302214E-01
C40 3.876943704957E-01 4.405494124789E-01 1.760708291706E-01
H41 3.481105345556E-01 2.557414517061E-01 2.105587130451E-01
H42 -1.331822342816E-01 4.303025251642E-01 2.978271575371E-02
C43 6.345164575267E-02 -3.510263937624E-01 1.363425241512E-01
H44 2.516819442172E-01 -1.171485226660E-01 2.353203056728E-01
H45 3.515145938752E-01 -4.642350793899E-01 -1.375401302214E-01
C46 -4.405494124789E-01 -3.876943704957E-01 -1.760708291706E-01
H47 -2.557414517061E-01 -3.481105345556E-01 -2.105587130451E-01
H48 -4.303025251642E-01 1.331822342816E-01 -2.978271575371E-02
C49 3.510263937624E-01 -6.345164575267E-02 -1.363425241512E-01
H50 1.171485226660E-01 -2.516819442172E-01 -2.353203056728E-01
H51 2.090185830449E-01 4.711514540558E-01 2.650180572549E-02
C52 6.639953697122E-02 4.498966088807E-01 -6.276815014235E-02
H53 -1.689286643274E-01 2.558579682333E-02 -1.811363340558E-01
C54 -1.494449547470E-01 1.966871138131E-01 -1.782381662914E-01
H55 -4.711514540558E-01 -2.090185830449E-01 -2.650180572549E-02
C56 -4.498966088807E-01 -6.639953697122E-02 6.276815014235E-02
H57 -2.558579682333E-02 1.689286643274E-01 1.811363340558E-01
C58 -1.966871138131E-01 1.494449547470E-01 1.782381662914E-01
H59 2.557414517061E-01 3.481105345556E-01 2.105587130451E-01
H60 9.675290468306E-02 -3.944795830409E-01 1.603740562208E-01
H61 -3.481105345556E-01 -2.557414517061E-01 -2.105587130451E-01
H62 3.944795830409E-01 -9.675290468306E-02 -1.603740562208E-01
H63 1.331822342816E-01 -4.303025251642E-01 -2.978271575371E-02
C64 -6.345164575267E-02 3.510263937624E-01 -1.363425241512E-01
H65 -2.516819442172E-01 1.171485226660E-01 -2.353203056728E-01
H66 4.303025251642E-01 -1.331822342816E-01 2.978271575371E-02
C67 -3.510263937624E-01 6.345164575267E-02 1.363425241512E-01
H68 -1.171485226660E-01 2.516819442172E-01 2.353203056728E-01
H69 -9.675290468306E-02 3.944795830409E-01 -1.603740562208E-01
H70 -3.944795830409E-01 9.675290468306E-02 1.603740562208E-01
C71 4.726418548514E-01 -4.726418548514E-01 -5.000000000000E-01
C72 -4.099527789839E-01 -3.037754382711E-01 -4.506733340714E-01
C73 3.037754382711E-01 4.099527789839E-01 4.506733340714E-01
C74 -4.726418548514E-01 4.726418548514E-01 -5.000000000000E-01
C75 -2.335228739285E-01 -1.798124247681E-01 -4.118836560829E-01
C76 -4.743656381856E-01 -2.595356907176E-01 -4.268942696717E-01
C77 1.798124247681E-01 2.335228739285E-01 4.118836560829E-01
C78 2.595356907176E-01 4.743656381856E-01 4.268942696717E-01
C79 4.099527789839E-01 3.037754382711E-01 4.506733340714E-01
C80 -3.037754382711E-01 -4.099527789839E-01 -4.506733340714E-01
C81 -1.798124247681E-01 -2.335228739285E-01 -4.118836560829E-01
C82 -1.076691789475E-01 -3.785853837679E-03 -3.656175062694E-01
C83 -3.991118750039E-01 -1.131882414756E-01 -4.718184050220E-01
C84 4.014063729763E-01 -3.535598503408E-01 -3.507170671061E-01
C85 2.335228739285E-01 1.798124247681E-01 4.118836560829E-01
C86 3.785853837679E-03 1.076691789475E-01 3.656175062694E-01
C87 1.131882414756E-01 3.991118750039E-01 4.718184050220E-01
C88 3.535598503408E-01 -4.014063729763E-01 3.507170671061E-01
C89 4.743656381856E-01 2.595356907176E-01 4.268942696717E-01
C90 -2.595356907176E-01 -4.743656381856E-01 -4.268942696717E-01
C91 -3.785853837679E-03 -1.076691789475E-01 -3.656175062694E-01
H92 -1.478914624441E-01 3.655379620811E-02 -3.635283703325E-01
C93 5.937697932778E-02 1.122866731894E-01 -3.240801531587E-01
H94 -3.025655833438E-01 -3.894279508462E-02 4.690154317186E-01
C95 -4.466473287988E-01 -6.234523691589E-02 -4.412826790422E-01
H96 3.437021151586E-01 -4.659954452289E-01 -3.148599324387E-01
C97 3.511346978025E-01 -3.050869437444E-01 -3.206829554101E-01
C98 1.076691789475E-01 3.785853837679E-03 3.656175062694E-01
H99 -3.655379620811E-02 1.478914624441E-01 3.635283703325E-01
C100 -1.122866731894E-01 -5.937697932778E-02 3.240801531587E-01
H101 3.894279508462E-02 3.025655833438E-01 -4.690154317186E-01
C102 6.234523691589E-02 4.466473287988E-01 4.412826790422E-01
H103 4.659954452289E-01 -3.437021151586E-01 3.148599324387E-01
C104 3.050869437444E-01 -3.511346978025E-01 3.206829554101E-01
C105 3.991118750039E-01 1.131882414756E-01 4.718184050220E-01
C106 -4.014063729763E-01 3.535598503408E-01 3.507170671061E-01
C107 -1.131882414756E-01 -3.991118750039E-01 -4.718184050220E-01
C108 -3.535598503408E-01 4.014063729763E-01 -3.507170671061E-01
H109 3.655379620811E-02 -1.478914624441E-01 -3.635283703325E-01
C110 1.122866731894E-01 5.937697932778E-02 -3.240801531587E-01
H111 1.514098409309E-01 2.438831646228E-01 -2.893174737571E-01
H112 -3.848059028575E-01 5.336949602292E-02 -4.760722535550E-01
C113 4.273766532551E-01 -1.586532731734E-01 -3.659724325271E-01
H114 2.524660765096E-01 -3.820837023174E-01 -2.620476271169E-01
H115 1.478914624441E-01 -3.655379620811E-02 3.635283703325E-01
C116 -5.937697932778E-02 -1.122866731894E-01 3.240801531587E-01
H117 -2.438831646228E-01 -1.514098409309E-01 2.893174737571E-01
H118 -5.336949602292E-02 3.848059028575E-01 4.760722535550E-01
C119 1.586532731734E-01 -4.273766532551E-01 3.659724325271E-01
H120 3.820837023174E-01 -2.524660765096E-01 2.620476271169E-01
H121 3.025655833438E-01 3.894279508462E-02 -4.690154317186E-01
C122 4.466473287988E-01 6.234523691589E-02 4.412826790422E-01
H123 -3.437021151586E-01 4.659954452289E-01 3.148599324387E-01
C124 -3.511346978025E-01 3.050869437444E-01 3.206829554101E-01
H125 -3.894279508462E-02 -3.025655833438E-01 4.690154317186E-01
C126 -6.234523691589E-02 -4.466473287988E-01 -4.412826790422E-01
H127 -4.659954452289E-01 3.437021151586E-01 -3.148599324387E-01
C128 -3.050869437444E-01 3.511346978025E-01 -3.206829554101E-01
H129 2.438831646228E-01 1.514098409309E-01 -2.893174737571E-01
H130 3.902487654877E-01 -1.186506893937E-01 -3.428686449428E-01
H131 -1.514098409309E-01 -2.438831646228E-01 2.893174737571E-01
H132 1.186506893937E-01 -3.902487654877E-01 3.428686449428E-01
H133 3.848059028575E-01 -5.336949602292E-02 4.760722535550E-01
C134 -4.273766532551E-01 1.586532731734E-01 3.659724325271E-01
H135 -2.524660765096E-01 3.820837023174E-01 2.620476271169E-01
H136 5.336949602292E-02 -3.848059028575E-01 -4.760722535550E-01
C137 -1.586532731734E-01 4.273766532551E-01 -3.659724325271E-01
H138 -3.820837023174E-01 2.524660765096E-01 -2.620476271169E-01
H139 -3.902487654877E-01 1.186506893937E-01 3.428686449428E-01
H140 -1.186506893937E-01 3.902487654877E-01 -3.428686449428E-01


#===END
