###############################################################
#
#primitive cell cif file
#
###############################################################

negm35_data

_symmetry_space_group_name_H-M 'P 1'
_cell_length_a      13.86596031
_cell_length_b      13.86596031
_cell_length_c      14.21100000
_cell_angle_alpha   90.000000
_cell_angle_beta    90.000000
_cell_angle_gamma   150.032293

loop_
_atom_site_label
_atom_site_fract_x
_atom_site_fract_y
_atom_site_fract_z
C1 2.740485044895E-02 -2.740485044895E-02 0.000000000000E+00
C2 -9.155524134928E-02 -1.979778415849E-01 4.824252691408E-02
C3 1.979778415849E-01 9.155524134928E-02 -4.824252691408E-02
C4 -2.740485044895E-02 2.740485044895E-02 0.000000000000E+00
C5 -2.685723615093E-01 -3.223352806355E-01 8.662697967019E-02
C6 -2.787093477926E-02 -2.431404598260E-01 7.205587298473E-02
C7 3.223352806355E-01 2.685723615093E-01 -8.662697967019E-02
C8 2.431404598260E-01 2.787093477926E-02 -7.205587298473E-02
C9 9.155524134928E-02 1.979778415849E-01 -4.824252691408E-02
C10 -1.979778415849E-01 -9.155524134928E-02 4.824252691408E-02
C11 -3.223352806355E-01 -2.685723615093E-01 8.662697967019E-02
C12 -3.942398713603E-01 -4.980238116367E-01 1.333854412485E-01
C13 -1.096096682140E-01 -3.953512711868E-01 3.015025509282E-02
C14 1.019346286269E-01 -1.442214210905E-01 1.459884287333E-01
C15 2.685723615093E-01 3.223352806355E-01 -8.662697967019E-02
C16 4.980238116367E-01 3.942398713603E-01 -1.333854412485E-01
C17 3.953512711868E-01 1.096096682140E-01 -3.015025509282E-02
C18 1.442214210905E-01 -1.019346286269E-01 -1.459884287333E-01
C19 2.787093477926E-02 2.431404598260E-01 -7.205587298473E-02
C20 -2.431404598260E-01 -2.787093477926E-02 7.205587298473E-02
C21 -4.980238116367E-01 -3.942398713603E-01 1.333854412485E-01
H22 -3.537765494934E-01 4.619255791879E-01 1.360636929214E-01
C23 4.392295369940E-01 3.863514329192E-01 1.754184849082E-01
H24 -2.094254530466E-01 -4.726095733972E-01 -2.769572539350E-02
C25 -6.441332846520E-02 -4.481476418467E-01 6.192533701140E-02
H26 1.651483560839E-01 -2.701108027862E-02 1.796043388759E-01
C27 1.500002628756E-01 -1.945116719632E-01 1.771729456169E-01
C28 3.942398713603E-01 4.980238116367E-01 -1.333854412485E-01
H29 -4.619255791879E-01 3.537765494934E-01 -1.360636929214E-01
C30 -3.863514329192E-01 -4.392295369940E-01 -1.754184849082E-01
H31 4.726095733972E-01 2.094254530466E-01 2.769572539350E-02
C32 4.481476418467E-01 6.441332846520E-02 -6.192533701140E-02
H33 2.701108027862E-02 -1.651483560839E-01 -1.796043388759E-01
C34 1.945116719632E-01 -1.500002628756E-01 -1.771729456169E-01
C35 1.096096682140E-01 3.953512711868E-01 -3.015025509282E-02
C36 -1.019346286269E-01 1.442214210905E-01 -1.459884287333E-01
C37 -3.953512711868E-01 -1.096096682140E-01 3.015025509282E-02
C38 -1.442214210905E-01 1.019346286269E-01 1.459884287333E-01
H39 4.619255791879E-01 -3.537765494934E-01 1.360636929214E-01
C40 3.863514329192E-01 4.392295369940E-01 1.754184849082E-01
H41 3.481517276896E-01 2.557163653579E-01 2.109989267296E-01
H42 -1.300643885386E-01 4.325646585356E-01 2.924872953930E-02
C43 6.613945854221E-02 -3.476248125087E-01 1.353937847803E-01
H44 2.524901078060E-01 -1.139956300532E-01 2.342468673984E-01
H45 3.537765494934E-01 -4.619255791879E-01 -1.360636929214E-01
C46 -4.392295369940E-01 -3.863514329192E-01 -1.754184849082E-01
H47 -2.557163653579E-01 -3.481517276896E-01 -2.109989267296E-01
H48 -4.325646585356E-01 1.300643885386E-01 -2.924872953930E-02
C49 3.476248125087E-01 -6.613945854221E-02 -1.353937847803E-01
H50 1.139956300532E-01 -2.524901078060E-01 -2.342468673984E-01
H51 2.094254530466E-01 4.726095733972E-01 2.769572539350E-02
C52 6.441332846520E-02 4.481476418467E-01 -6.192533701140E-02
H53 -1.651483560839E-01 2.701108027862E-02 -1.796043388759E-01
C54 -1.500002628756E-01 1.945116719632E-01 -1.771729456169E-01
H55 -4.726095733972E-01 -2.094254530466E-01 -2.769572539350E-02
C56 -4.481476418467E-01 -6.441332846520E-02 6.192533701140E-02
H57 -2.701108027862E-02 1.651483560839E-01 1.796043388759E-01
C58 -1.945116719632E-01 1.500002628756E-01 1.771729456169E-01
H59 2.557163653579E-01 3.481517276896E-01 2.109989267296E-01
H60 1.016409304879E-01 -3.888825692293E-01 1.594890052134E-01
H61 -3.481517276896E-01 -2.557163653579E-01 -2.109989267296E-01
H62 3.888825692293E-01 -1.016409304879E-01 -1.594890052134E-01
H63 1.300643885386E-01 -4.325646585356E-01 -2.924872953930E-02
C64 -6.613945854221E-02 3.476248125087E-01 -1.353937847803E-01
H65 -2.524901078060E-01 1.139956300532E-01 -2.342468673984E-01
H66 4.325646585356E-01 -1.300643885386E-01 2.924872953930E-02
C67 -3.476248125087E-01 6.613945854221E-02 1.353937847803E-01
H68 -1.139956300532E-01 2.524901078060E-01 2.342468673984E-01
H69 -1.016409304879E-01 3.888825692293E-01 -1.594890052134E-01
H70 -3.888825692293E-01 1.016409304879E-01 1.594890052134E-01
C71 4.725951495510E-01 -4.725951495510E-01 -5.000000000000E-01
C72 -4.084447586507E-01 -3.020221584151E-01 -4.517574730859E-01
C73 3.020221584151E-01 4.084447586507E-01 4.517574730859E-01
C74 -4.725951495510E-01 4.725951495510E-01 -5.000000000000E-01
C75 -2.314276384907E-01 -1.776647193645E-01 -4.133730203298E-01
C76 -4.721290652207E-01 -2.568595401740E-01 -4.279441270153E-01
C77 1.776647193645E-01 2.314276384907E-01 4.133730203298E-01
C78 2.568595401740E-01 4.721290652207E-01 4.279441270153E-01
C79 4.084447586507E-01 3.020221584151E-01 4.517574730859E-01
C80 -3.020221584151E-01 -4.084447586507E-01 -4.517574730859E-01
C81 -1.776647193645E-01 -2.314276384907E-01 -4.133730203298E-01
C82 -1.057601286397E-01 -1.976188363343E-03 -3.666145587515E-01
C83 -3.903903317860E-01 -1.046487288132E-01 -4.698497449072E-01
C84 3.980653713731E-01 -3.557785789095E-01 -3.540115712667E-01
C85 2.314276384907E-01 1.776647193645E-01 4.133730203298E-01
C86 1.976188363343E-03 1.057601286397E-01 3.666145587515E-01
C87 1.046487288132E-01 3.903903317860E-01 4.698497449072E-01
C88 3.557785789095E-01 -3.980653713731E-01 3.540115712667E-01
C89 4.721290652207E-01 2.568595401740E-01 4.279441270153E-01
C90 -2.568595401740E-01 -4.721290652207E-01 -4.279441270153E-01
C91 -1.976188363343E-03 -1.057601286397E-01 -3.666145587515E-01
H92 -1.462234505066E-01 3.807442081206E-02 -3.639363070786E-01
C93 6.077046300597E-02 1.136485670808E-01 -3.245815150918E-01
H94 -2.905745469534E-01 -2.739042660284E-02 4.723042746065E-01
C95 -4.355866715348E-01 -5.185235815334E-02 -4.380746629886E-01
H96 3.348516439161E-01 -4.729889197214E-01 -3.203956611241E-01
C97 3.499997371244E-01 -3.054883280368E-01 -3.228270543831E-01
C98 1.057601286397E-01 1.976188363343E-03 3.666145587515E-01
H99 -3.807442081206E-02 1.462234505066E-01 3.639363070786E-01
C100 -1.136485670808E-01 -6.077046300597E-02 3.245815150918E-01
H101 2.739042660284E-02 2.905745469534E-01 -4.723042746065E-01
C102 5.185235815334E-02 4.355866715348E-01 4.380746629886E-01
H103 4.729889197214E-01 -3.348516439161E-01 3.203956611241E-01
C104 3.054883280368E-01 -3.499997371244E-01 3.228270543831E-01
C105 3.903903317860E-01 1.046487288132E-01 4.698497449072E-01
C106 -3.980653713731E-01 3.557785789095E-01 3.540115712667E-01
C107 -1.046487288132E-01 -3.903903317860E-01 -4.698497449072E-01
C108 -3.557785789095E-01 3.980653713731E-01 -3.540115712667E-01
H109 3.807442081206E-02 -1.462234505066E-01 -3.639363070786E-01
C110 1.136485670808E-01 6.077046300597E-02 -3.245815150918E-01
H111 1.518482723104E-01 2.442836346421E-01 -2.890010732704E-01
H112 -3.699356114614E-01 6.743534146445E-02 -4.707512704607E-01
C113 4.338605414578E-01 -1.523751874913E-01 -3.646062152197E-01
H114 2.475098921940E-01 -3.860043699468E-01 -2.657531326016E-01
H115 1.462234505066E-01 -3.807442081206E-02 3.639363070786E-01
C116 -6.077046300597E-02 -1.136485670808E-01 3.245815150918E-01
H117 -2.442836346421E-01 -1.518482723104E-01 2.890010732704E-01
H118 -6.743534146445E-02 3.699356114614E-01 4.707512704607E-01
C119 1.523751874913E-01 -4.338605414578E-01 3.646062152197E-01
H120 3.860043699468E-01 -2.475098921940E-01 2.657531326016E-01
H121 2.905745469534E-01 2.739042660284E-02 -4.723042746065E-01
C122 4.355866715348E-01 5.185235815334E-02 4.380746629886E-01
H123 -3.348516439161E-01 4.729889197214E-01 3.203956611241E-01
C124 -3.499997371244E-01 3.054883280368E-01 3.228270543831E-01
H125 -2.739042660284E-02 -2.905745469534E-01 4.723042746065E-01
C126 -5.185235815334E-02 -4.355866715348E-01 -4.380746629886E-01
H127 -4.729889197214E-01 3.348516439161E-01 -3.203956611241E-01
C128 -3.054883280368E-01 3.499997371244E-01 -3.228270543831E-01
H129 2.442836346421E-01 1.518482723104E-01 -2.890010732704E-01
H130 3.983590695121E-01 -1.111174307707E-01 -3.405109947866E-01
H131 -1.518482723104E-01 -2.442836346421E-01 2.890010732704E-01
H132 1.111174307707E-01 -3.983590695121E-01 3.405109947866E-01
H133 3.699356114614E-01 -6.743534146445E-02 4.707512704607E-01
C134 -4.338605414578E-01 1.523751874913E-01 3.646062152197E-01
H135 -2.475098921940E-01 3.860043699468E-01 2.657531326016E-01
H136 6.743534146445E-02 -3.699356114614E-01 -4.707512704607E-01
C137 -1.523751874913E-01 4.338605414578E-01 -3.646062152197E-01
H138 -3.860043699468E-01 2.475098921940E-01 -2.657531326016E-01
H139 -3.983590695121E-01 1.111174307707E-01 3.405109947866E-01
H140 -1.111174307707E-01 3.983590695121E-01 -3.405109947866E-01


#===END
