###############################################################
#
#primitive cell cif file
#
###############################################################

negm23_data

_symmetry_space_group_name_H-M 'P 1'
_cell_length_a      13.86596031
_cell_length_b      13.86596031
_cell_length_c      14.21100000
_cell_angle_alpha   90.000000
_cell_angle_beta    90.000000
_cell_angle_gamma   150.032293

loop_
_atom_site_label
_atom_site_fract_x
_atom_site_fract_y
_atom_site_fract_z
C1 2.774016970439E-02 -2.774016970439E-02 0.000000000000E+00
C2 -8.960236067271E-02 -1.964014526439E-01 4.987251283189E-02
C3 1.964014526439E-01 8.960236067271E-02 -4.987251283189E-02
C4 -2.707805343764E-02 2.707805343764E-02 0.000000000000E+00
C5 -2.661159827107E-01 -3.198593836335E-01 8.868064693976E-02
C6 -2.665745588869E-02 -2.424394576798E-01 7.328621435677E-02
C7 3.198593836335E-01 2.661159827107E-01 -8.868064693976E-02
C8 2.424394576798E-01 2.665745588869E-02 -7.328621435677E-02
C9 8.954529958096E-02 1.955185166662E-01 -4.935770250834E-02
C10 -1.955185166662E-01 -8.954529958096E-02 4.935770250834E-02
C11 -3.194013653277E-01 -2.656696233289E-01 8.841380542094E-02
C12 -3.934686146927E-01 -4.963828240387E-01 1.351058459348E-01
C13 -1.121686412991E-01 -3.970426647455E-01 3.152999723313E-02
C14 1.057366042104E-01 -1.428713991585E-01 1.459353353139E-01
C15 2.656696233289E-01 3.194013653277E-01 -8.841380542094E-02
C16 4.963828240387E-01 3.934686146927E-01 -1.351058459348E-01
C17 3.970426647455E-01 1.121686412991E-01 -3.152999723313E-02
C18 1.428713991585E-01 -1.057366042104E-01 -1.459353353139E-01
C19 2.484796999840E-02 2.395682807957E-01 -7.325641633383E-02
C20 -2.395682807957E-01 -2.484796999840E-02 7.325641633383E-02
C21 -4.952308289710E-01 -3.905223432466E-01 1.344155633658E-01
H22 -3.545632172930E-01 4.620230937848E-01 1.378000861996E-01
C23 4.392769151407E-01 3.880282923221E-01 1.761056920326E-01
H24 -2.136845944586E-01 -4.745965777554E-01 -2.543442403666E-02
C25 -6.887836248172E-02 -4.520568769188E-01 6.225778904321E-02
H26 1.725260772475E-01 -2.343242573118E-02 1.795633773231E-01
C27 1.521423088602E-01 -1.952753707648E-01 1.759802311245E-01
C28 3.905223432466E-01 4.952308289710E-01 -1.344155633658E-01
H29 -4.620230937848E-01 3.545632172930E-01 -1.378000861996E-01
C30 -3.880282923221E-01 -4.392769151407E-01 -1.761056920326E-01
H31 4.745965777554E-01 2.136845944586E-01 2.543442403666E-02
C32 4.520568769188E-01 6.887836248172E-02 -6.225778904321E-02
H33 2.343242573118E-02 -1.725260772475E-01 -1.795633773231E-01
C34 1.952753707648E-01 -1.521423088602E-01 -1.759802311245E-01
C35 9.802663132350E-02 3.844875711881E-01 -2.794468769868E-02
C36 -9.675968102126E-02 1.473303055738E-01 -1.505894217548E-01
C37 -3.844875711881E-01 -9.802663132350E-02 2.794468769868E-02
C38 -1.473303055738E-01 9.675968102126E-02 1.505894217548E-01
H39 4.656581893970E-01 -3.490599141381E-01 1.362116736893E-01
C40 3.873794049843E-01 4.418955180104E-01 1.758849839794E-01
H41 3.461807440891E-01 2.559217343087E-01 2.107784009167E-01
H42 -1.380142178165E-01 4.264957091459E-01 2.975587618936E-02
C43 6.402039559041E-02 -3.511425025332E-01 1.344571647261E-01
H44 2.564364381771E-01 -1.143979491275E-01 2.321285900604E-01
H45 3.490599141381E-01 -4.656581893970E-01 -1.362116736893E-01
C46 -4.418955180104E-01 -3.873794049843E-01 -1.758849839794E-01
H47 -2.559217343087E-01 -3.461807440891E-01 -2.107784009167E-01
H48 -4.264957091459E-01 1.380142178165E-01 -2.975587618936E-02
C49 3.511425025332E-01 -6.402039559041E-02 -1.344571647261E-01
H50 1.143979491275E-01 -2.564364381771E-01 -2.321285900604E-01
H51 1.927684052425E-01 4.576120812158E-01 3.205194997023E-02
C52 5.087384569075E-02 4.354944950459E-01 -5.922768205693E-02
H53 -1.527004719212E-01 3.615792586322E-02 -1.867130242940E-01
C54 -1.461679480844E-01 1.963247993039E-01 -1.815749797568E-01
H55 -4.576120812158E-01 -1.927684052425E-01 -3.205194997023E-02
C56 -4.354944950459E-01 -5.087384569075E-02 5.922768205693E-02
H57 -3.615792586322E-02 1.527004719212E-01 1.867130242940E-01
C58 -1.963247993039E-01 1.461679480844E-01 1.815749797568E-01
H59 2.559365527746E-01 3.505199495356E-01 2.104628383713E-01
H60 9.775619285979E-02 -3.943866526037E-01 1.579063540438E-01
H61 -3.505199495356E-01 -2.559365527746E-01 -2.104628383713E-01
H62 3.943866526037E-01 -9.775619285979E-02 -1.579063540438E-01
H63 1.103621136076E-01 -4.504373199953E-01 -2.395458600936E-02
C64 -7.205459690713E-02 3.412306180558E-01 -1.359129268980E-01
H65 -2.427794295305E-01 1.206668712211E-01 -2.411440884955E-01
H66 4.504373199953E-01 -1.103621136076E-01 2.395458600936E-02
C67 -3.412306180558E-01 7.205459690713E-02 1.359129268980E-01
H68 -1.206668712211E-01 2.427794295305E-01 2.411440884955E-01
H69 -1.087479463356E-01 3.814422410435E-01 -1.595990572342E-01
H70 -3.814422410435E-01 1.087479463356E-01 1.595990572342E-01
C71 4.722598302956E-01 -4.722598302956E-01 -5.000000000000E-01
C72 -4.103976393273E-01 -3.035985473561E-01 -4.501274871681E-01
C73 3.035985473561E-01 4.103976393273E-01 4.501274871681E-01
C74 -4.729219465624E-01 4.729219465624E-01 -5.000000000000E-01
C75 -2.338840172893E-01 -1.801406163665E-01 -4.113193530602E-01
C76 -4.733425441113E-01 -2.575605423202E-01 -4.267137856432E-01
C77 1.801406163665E-01 2.338840172893E-01 4.113193530602E-01
C78 2.575605423202E-01 4.733425441113E-01 4.267137856432E-01
C79 4.104547004190E-01 3.044814833338E-01 4.506422974917E-01
C80 -3.044814833338E-01 -4.104547004190E-01 -4.506422974917E-01
C81 -1.805986346723E-01 -2.343303766711E-01 -4.115861945791E-01
C82 -1.065313853073E-01 -3.617175961347E-03 -3.648941540652E-01
C83 -3.878313587009E-01 -1.029573352545E-01 -4.684700027669E-01
C84 3.942633957896E-01 -3.571286008415E-01 -3.540646646861E-01
C85 2.343303766711E-01 1.805986346723E-01 4.115861945791E-01
C86 3.617175961347E-03 1.065313853073E-01 3.648941540652E-01
C87 1.029573352545E-01 3.878313587009E-01 4.684700027669E-01
C88 3.571286008415E-01 -3.942633957896E-01 3.540646646861E-01
C89 4.751520300016E-01 2.604317192043E-01 4.267435836662E-01
C90 -2.604317192043E-01 -4.751520300016E-01 -4.267435836662E-01
C91 -4.769171028994E-03 -1.094776567534E-01 -3.655844366342E-01
H92 -1.454367827070E-01 3.797690621524E-02 -3.621999138004E-01
C93 6.072308485935E-02 1.119717076779E-01 -3.238943079674E-01
H94 -2.863154055414E-01 -2.540342224463E-02 4.745655759633E-01
C95 -4.311216375183E-01 -4.794312308116E-02 -4.377422109568E-01
H96 3.274739227525E-01 -4.765675742688E-01 -3.204366226769E-01
C97 3.478576911398E-01 -3.047246292352E-01 -3.240197688755E-01
C98 1.094776567534E-01 4.769171028994E-03 3.655844366342E-01
H99 -3.797690621524E-02 1.454367827070E-01 3.621999138004E-01
C100 -1.119717076779E-01 -6.072308485935E-02 3.238943079674E-01
H101 2.540342224463E-02 2.863154055414E-01 -4.745655759633E-01
C102 4.794312308116E-02 4.311216375183E-01 4.377422109568E-01
H103 4.765675742688E-01 -3.274739227525E-01 3.204366226769E-01
C104 3.047246292352E-01 -3.478576911398E-01 3.240197688755E-01
C105 4.019733686765E-01 1.155124288119E-01 4.720553123013E-01
C106 -4.032403189787E-01 3.526696944262E-01 3.494105782452E-01
C107 -1.155124288119E-01 -4.019733686765E-01 -4.720553123013E-01
C108 -3.526696944262E-01 4.032403189787E-01 -3.494105782452E-01
H109 3.434181060302E-02 -1.509400858619E-01 -3.637883263107E-01
C110 1.126205950157E-01 5.810448198957E-02 -3.241150160206E-01
H111 1.538192559109E-01 2.440782656913E-01 -2.892215990833E-01
H112 -3.619857821835E-01 7.350429085408E-02 -4.702441238106E-01
C113 4.359796044096E-01 -1.488574974668E-01 -3.655428352739E-01
H114 2.435635618229E-01 -3.856020508725E-01 -2.678714099396E-01
H115 1.509400858619E-01 -3.434181060302E-02 3.637883263107E-01
C116 -5.810448198957E-02 -1.126205950157E-01 3.241150160206E-01
H117 -2.440782656913E-01 -1.538192559109E-01 2.892215990833E-01
H118 -7.350429085408E-02 3.619857821835E-01 4.702441238106E-01
C119 1.488574974668E-01 -4.359796044096E-01 3.655428352739E-01
H120 3.856020508725E-01 -2.435635618229E-01 2.678714099396E-01
H121 3.072315947575E-01 4.238791878418E-02 -4.679480500298E-01
C122 4.491261543093E-01 6.450550495407E-02 4.407723179431E-01
H123 -3.472995280788E-01 4.638420741368E-01 3.132869757060E-01
C124 -3.538320519156E-01 3.036752006961E-01 3.184250202432E-01
H125 -4.238791878418E-02 -3.072315947575E-01 4.679480500298E-01
C126 -6.450550495407E-02 -4.491261543093E-01 -4.407723179431E-01
H127 -4.638420741368E-01 3.472995280788E-01 -3.132869757060E-01
C128 -3.036752006961E-01 3.538320519156E-01 -3.184250202432E-01
H129 2.440634472254E-01 1.494800504644E-01 -2.895371616287E-01
H130 4.022438071402E-01 -1.056133473963E-01 -3.420936459562E-01
H131 -1.494800504644E-01 -2.440634472254E-01 2.895371616287E-01
H132 1.056133473963E-01 -4.022438071402E-01 3.420936459562E-01
H133 3.896378863924E-01 -4.956268000469E-02 4.760454139906E-01
C134 -4.279454030929E-01 1.587693819442E-01 3.640870731020E-01
H135 -2.572205704695E-01 3.793331287789E-01 2.588559115045E-01
H136 4.956268000469E-02 -3.896378863924E-01 -4.760454139906E-01
C137 -1.587693819442E-01 4.279454030929E-01 -3.640870731020E-01
H138 -3.793331287789E-01 2.572205704695E-01 -2.588559115045E-01
H139 -3.912520536644E-01 1.185577589565E-01 3.404009427658E-01
H140 -1.185577589565E-01 3.912520536644E-01 -3.404009427658E-01


#===END
