###############################################################
#
#primitive cell cif file
#
###############################################################

negm42_data

_symmetry_space_group_name_H-M 'P 1'
_cell_length_a      13.86596031
_cell_length_b      13.86596031
_cell_length_c      14.21100000
_cell_angle_alpha   90.000000
_cell_angle_beta    90.000000
_cell_angle_gamma   150.032293

loop_
_atom_site_label
_atom_site_fract_x
_atom_site_fract_y
_atom_site_fract_z
C1 2.716924827246E-02 -2.716924827246E-02 0.000000000000E+00
C2 -8.780887920086E-02 -1.938817773439E-01 5.064369387657E-02
C3 1.938817773439E-01 8.780887920086E-02 -5.064369387657E-02
C4 -2.764897486957E-02 2.764897486957E-02 0.000000000000E+00
C5 -2.642221609576E-01 -3.180672646814E-01 8.953113859799E-02
C6 -2.353153034698E-02 -2.384525375894E-01 7.417242958814E-02
C7 3.180672646814E-01 2.642221609576E-01 -8.953113859799E-02
C8 2.384525375894E-01 2.353153034698E-02 -7.417242958814E-02
C9 9.133878105280E-02 1.980381919662E-01 -4.858652146365E-02
C10 -1.980381919662E-01 -9.133878105280E-02 4.858652146365E-02
C11 -3.211934842798E-01 -2.675634450820E-01 8.756331376272E-02
C12 -3.875742225853E-01 -4.921041839232E-01 1.371369339320E-01
C13 -1.028215554294E-01 -3.876502213586E-01 2.974438476251E-02
C14 1.019188173875E-01 -1.446300406157E-01 1.496463888083E-01
C15 2.675634450820E-01 3.211934842798E-01 -8.756331376272E-02
C16 4.921041839232E-01 3.875742225853E-01 -1.371369339320E-01
C17 3.876502213586E-01 1.028215554294E-01 -2.974438476251E-02
C18 1.446300406157E-01 -1.019188173875E-01 -1.496463888083E-01
C19 2.797389554011E-02 2.435552008861E-01 -7.237020110246E-02
C20 -2.435552008861E-01 -2.797389554011E-02 7.237020110246E-02
C21 -4.995094690864E-01 -3.964167353540E-01 1.323844753687E-01
H22 -3.444583899092E-01 4.705389423301E-01 1.408494771123E-01
C23 4.435141915122E-01 3.892910355893E-01 1.773771130001E-01
H24 -2.000204096956E-01 -4.614555087680E-01 -2.901322102062E-02
C25 -5.913005715827E-02 -4.422729295229E-01 6.033867806396E-02
H26 1.636542622529E-01 -2.937637692741E-02 1.849568213729E-01
C27 1.477227776587E-01 -1.974954854568E-01 1.800214356258E-01
C28 3.964167353540E-01 4.995094690864E-01 -1.323844753687E-01
H29 -4.705389423301E-01 3.444583899092E-01 -1.408494771123E-01
C30 -3.892910355893E-01 -4.435141915122E-01 -1.773771130001E-01
H31 4.614555087680E-01 2.000204096956E-01 2.901322102062E-02
C32 4.422729295229E-01 5.913005715827E-02 -6.033867806396E-02
H33 2.937637692741E-02 -1.636542622529E-01 -1.849568213729E-01
C34 1.974954854568E-01 -1.477227776587E-01 -1.800214356258E-01
C35 1.073737171932E-01 3.938800145750E-01 -2.973030016931E-02
C36 -1.005774678441E-01 1.455716641166E-01 -1.468783682604E-01
C37 -3.938800145750E-01 -1.073737171932E-01 2.973030016931E-02
C38 -1.455716641166E-01 1.005774678441E-01 1.468783682604E-01
H39 4.571423408516E-01 -3.591647415219E-01 1.331622827767E-01
C40 3.861166617170E-01 4.376582416389E-01 1.746135630119E-01
H41 3.533777908641E-01 2.591919777741E-01 2.131066544237E-01
H42 -1.232187133882E-01 4.405567816869E-01 2.567752031771E-02
C43 6.666125734575E-02 -3.473258172487E-01 1.355294528292E-01
H44 2.468445840928E-01 -1.210294530127E-01 2.383333183426E-01
H45 3.591647415219E-01 -4.571423408516E-01 -1.331622827767E-01
C46 -4.376582416389E-01 -3.861166617170E-01 -1.746135630119E-01
H47 -2.591919777741E-01 -3.533777908641E-01 -2.131066544237E-01
H48 -4.405567816869E-01 1.232187133882E-01 -2.567752031771E-02
C49 3.473258172487E-01 -6.666125734575E-02 -1.355294528292E-01
H50 1.210294530127E-01 -2.468445840928E-01 -2.383333183426E-01
H51 2.064325900054E-01 4.707531502032E-01 2.847315298628E-02
C52 6.062215101420E-02 4.452784424419E-01 -6.114679303617E-02
H53 -1.615722869158E-01 3.021397466700E-02 -1.813195802442E-01
C54 -1.505874792858E-01 1.941046846119E-01 -1.775337752555E-01
H55 -4.707531502032E-01 -2.064325900054E-01 -2.847315298628E-02
C56 -4.452784424419E-01 -6.062215101420E-02 6.114679303617E-02
H57 -3.021397466700E-02 1.615722869158E-01 1.813195802442E-01
C58 -1.941046846119E-01 1.505874792858E-01 1.775337752555E-01
H59 2.526663093091E-01 3.433229027606E-01 2.081345848643E-01
H60 1.004317745635E-01 -3.905460652784E-01 1.589095918906E-01
H61 -3.433229027606E-01 -2.526663093091E-01 -2.081345848643E-01
H62 3.905460652784E-01 -1.004317745635E-01 -1.589095918906E-01
H63 1.251576180359E-01 -4.363762474543E-01 -2.803294188101E-02
C64 -6.941373515179E-02 3.450473033404E-01 -1.348406387949E-01
H65 -2.523712836148E-01 1.140353673359E-01 -2.349393602133E-01
H66 4.363762474543E-01 -1.251576180359E-01 2.803294188101E-02
C67 -3.450473033404E-01 6.941373515179E-02 1.348406387949E-01
H68 -1.140353673359E-01 2.523712836148E-01 2.349393602133E-01
H69 -1.060723646318E-01 3.852828283688E-01 -1.585958193874E-01
H70 -3.852828283688E-01 1.060723646318E-01 1.585958193874E-01
C71 4.723510251304E-01 -4.723510251304E-01 -5.000000000000E-01
C72 -4.086612189472E-01 -3.019618080338E-01 -4.514134785363E-01
C73 3.019618080338E-01 4.086612189472E-01 4.514134785363E-01
C74 -4.728307517275E-01 4.728307517275E-01 -5.000000000000E-01
C75 -2.324365549180E-01 -1.788065157202E-01 -4.124366862373E-01
C76 -4.720261044599E-01 -2.564447991139E-01 -4.276297988975E-01
C77 1.788065157202E-01 2.324365549180E-01 4.124366862373E-01
C78 2.564447991139E-01 4.720261044599E-01 4.276297988975E-01
C79 4.121911207991E-01 3.061182226561E-01 4.493563061234E-01
C80 -3.061182226561E-01 -4.121911207991E-01 -4.493563061234E-01
C81 -1.819327353186E-01 -2.357778390424E-01 -4.104688614020E-01
C82 -1.035832646460E-01 -4.905309135632E-04 -3.676155246313E-01
C83 -3.926262828068E-01 -1.061199854250E-01 -4.702696998307E-01
C84 3.994225321559E-01 -3.544283358834E-01 -3.531216317396E-01
C85 2.357778390424E-01 1.819327353186E-01 4.104688614020E-01
C86 4.905309135631E-04 1.035832646460E-01 3.676155246313E-01
C87 1.061199854250E-01 3.926262828068E-01 4.702696998307E-01
C88 3.544283358834E-01 -3.994225321559E-01 3.531216317396E-01
C89 4.764684696530E-01 2.615474624106E-01 4.258275704119E-01
C90 -2.615474624106E-01 -4.764684696530E-01 -4.258275704119E-01
C91 -7.895816076778E-03 -1.124257774147E-01 -3.628630660680E-01
H92 -1.408352584781E-01 4.285765914839E-02 -3.668377172233E-01
C93 6.234175836112E-02 1.138833382830E-01 -3.253864369881E-01
H94 -2.935674099946E-01 -2.924684979679E-02 4.715268470137E-01
C95 -4.393778489858E-01 -5.472155755813E-02 -4.388532069638E-01
H96 3.384277130842E-01 -4.697860253330E-01 -3.186804197558E-01
C97 3.494125207142E-01 -3.058953153881E-01 -3.224662247445E-01
C98 1.124257774147E-01 7.895816076778E-03 3.628630660680E-01
H99 -4.285765914839E-02 1.408352584781E-01 3.668377172233E-01
C100 -1.138833382830E-01 -6.234175836112E-02 3.253864369881E-01
H101 2.924684979679E-02 2.935674099946E-01 -4.715268470137E-01
C102 5.472155755813E-02 4.393778489858E-01 4.388532069638E-01
H103 4.697860253330E-01 -3.384277130842E-01 3.186804197558E-01
C104 3.058953153881E-01 -3.494125207142E-01 3.224662247445E-01
C105 3.971784445706E-01 1.123497786414E-01 4.702556152375E-01
C106 -3.980811826125E-01 3.553699593843E-01 3.503536111917E-01
C107 -1.123497786414E-01 -3.971784445706E-01 -4.702556152375E-01
C108 -3.553699593843E-01 3.980811826125E-01 -3.503536111917E-01
H109 2.946105766986E-02 -1.555416100908E-01 -3.591505228877E-01
C110 1.107089644107E-01 5.648580848779E-02 -3.226228869999E-01
H111 1.566770972394E-01 2.473336906909E-01 -2.918654151357E-01
H112 -3.748423819641E-01 6.362375254568E-02 -4.719670581190E-01
C113 4.305862648482E-01 -1.549526966596E-01 -3.651593612051E-01
H114 2.476287163852E-01 -3.859646326641E-01 -2.650606397867E-01
H115 1.555416100908E-01 -2.946105766986E-02 3.591505228877E-01
C116 -5.648580848779E-02 -1.107089644107E-01 3.226228869999E-01
H117 -2.473336906909E-01 -1.566770972394E-01 2.918654151357E-01
H118 -6.362375254568E-02 3.748423819641E-01 4.719670581190E-01
C119 1.549526966596E-01 -4.305862648482E-01 3.651593612051E-01
H120 3.859646326641E-01 -2.476287163852E-01 2.650606397867E-01
H121 2.999795903044E-01 3.854449123201E-02 -4.709867789794E-01
C122 4.408699428417E-01 5.772707047710E-02 4.396613219360E-01
H123 -3.363457377471E-01 4.706236230726E-01 3.150431786271E-01
C124 -3.522772223413E-01 3.025045145432E-01 3.199785643742E-01
H125 -3.854449123201E-02 -2.999795903044E-01 4.709867789794E-01
C126 -5.772707047710E-02 -4.408699428417E-01 -4.396613219360E-01
H127 -4.706236230726E-01 3.363457377471E-01 -3.150431786271E-01
C128 -3.025045145432E-01 3.522772223413E-01 -3.199785643742E-01
H129 2.408080222259E-01 1.466222091359E-01 -2.868933455763E-01
H130 3.939276353682E-01 -1.147171716312E-01 -3.414041806126E-01
H131 -1.466222091359E-01 -2.408080222259E-01 2.868933455763E-01
H132 1.147171716312E-01 -3.939276353682E-01 3.414041806126E-01
H133 3.767812866118E-01 -5.944321831309E-02 4.743224796823E-01
C134 -4.333387426543E-01 1.526741827513E-01 3.644705471708E-01
H135 -2.531554159072E-01 3.789705469873E-01 2.616666816574E-01
H136 5.944321831309E-02 -3.767812866118E-01 -4.743224796823E-01
C137 -1.526741827513E-01 4.333387426543E-01 -3.644705471708E-01
H138 -3.789705469873E-01 2.531554159072E-01 -2.616666816574E-01
H139 -3.995682254365E-01 1.094539347216E-01 3.410904081094E-01
H140 -1.094539347216E-01 3.995682254365E-01 -3.410904081094E-01


#===END
