###############################################################
#
#primitive cell cif file
#
###############################################################

negm46_data

_symmetry_space_group_name_H-M 'P 1'
_cell_length_a      13.86596031
_cell_length_b      13.86596031
_cell_length_c      14.21100000
_cell_angle_alpha   90.000000
_cell_angle_beta    90.000000
_cell_angle_gamma   150.032293

loop_
_atom_site_label
_atom_site_fract_x
_atom_site_fract_y
_atom_site_fract_z
C1 2.789885454474E-02 -2.789885454474E-02 0.000000000000E+00
C2 -9.004091786444E-02 -1.967802314932E-01 5.019769810731E-02
C3 1.967802314932E-01 9.004091786444E-02 -5.019769810731E-02
C4 -2.691936859730E-02 2.691936859730E-02 0.000000000000E+00
C5 -2.665415874809E-01 -3.197338910948E-01 8.889369965013E-02
C6 -2.695307222316E-02 -2.426305041732E-01 7.434471408740E-02
C7 3.197338910948E-01 2.665415874809E-01 -8.889369965013E-02
C8 2.426305041732E-01 2.695307222316E-02 -7.434471408740E-02
C9 8.910674238923E-02 1.951397378169E-01 -4.903251723292E-02
C10 -1.951397378169E-01 -8.910674238923E-02 4.903251723292E-02
C11 -3.195268578664E-01 -2.652440185587E-01 8.820075271058E-02
C12 -3.948584236136E-01 -4.966153077923E-01 1.354151196766E-01
C13 -1.048377348916E-01 -3.912575052071E-01 3.034920859447E-02
C14 9.983009828671E-02 -1.470616212795E-01 1.494816781813E-01
C15 2.652440185587E-01 3.195268578664E-01 -8.820075271058E-02
C16 4.966153077923E-01 3.948584236136E-01 -1.354151196766E-01
C17 3.912575052071E-01 1.048377348916E-01 -3.034920859447E-02
C18 1.470616212795E-01 -9.983009828671E-02 -1.494816781813E-01
C19 2.455235366393E-02 2.393772343023E-01 -7.219791660319E-02
C20 -2.393772343023E-01 -2.455235366393E-02 7.219791660319E-02
C21 -4.949983452174E-01 -3.891325343257E-01 1.341062896241E-01
H22 -3.568327823610E-01 4.608641562790E-01 1.381085072381E-01
C23 4.379582752417E-01 3.884395199731E-01 1.762013812312E-01
H24 -2.027861264922E-01 -4.665614302606E-01 -2.823373749110E-02
C25 -5.784890378426E-02 -4.428238585376E-01 6.066426173148E-02
H26 1.606378482210E-01 -3.232117016326E-02 1.847338048938E-01
C27 1.490301878972E-01 -1.966871690986E-01 1.794925519808E-01
C28 3.891325343257E-01 4.949983452174E-01 -1.341062896241E-01
H29 -4.608641562790E-01 3.568327823610E-01 -1.381085072381E-01
C30 -3.884395199731E-01 -4.379582752417E-01 -1.762013812312E-01
H31 4.665614302606E-01 2.027861264922E-01 2.823373749110E-02
C32 4.428238585376E-01 5.784890378426E-02 -6.066426173148E-02
H33 3.232117016326E-02 -1.606378482210E-01 -1.847338048938E-01
C34 1.966871690986E-01 -1.490301878972E-01 -1.794925519808E-01
C35 1.053575377310E-01 3.902727307264E-01 -2.912547633734E-02
C36 -1.026661869449E-01 1.431400834529E-01 -1.470430788875E-01
C37 -3.902727307264E-01 -1.053575377310E-01 2.912547633734E-02
C38 -1.431400834529E-01 1.026661869449E-01 1.470430788875E-01
H39 4.668171269028E-01 -3.467903490701E-01 1.359032526509E-01
C40 3.869681773333E-01 4.432141579094E-01 1.757892947807E-01
H41 3.441095524063E-01 2.559107192428E-01 2.107256966728E-01
H42 -1.208398189376E-01 4.405746170749E-01 2.613859409802E-02
C43 6.994500076887E-02 -3.453945406782E-01 1.351327780931E-01
H44 2.493799597201E-01 -1.184218048621E-01 2.374080691727E-01
H45 3.467903490701E-01 -4.668171269028E-01 -1.359032526509E-01
C46 -4.432141579094E-01 -3.869681773333E-01 -1.757892947807E-01
H47 -2.559107192428E-01 -3.441095524063E-01 -2.107256966728E-01
H48 -4.405746170749E-01 1.208398189376E-01 -2.613859409802E-02
C49 3.453945406782E-01 -6.994500076887E-02 -1.351327780931E-01
H50 1.184218048621E-01 -2.493799597201E-01 -2.374080691727E-01
H51 2.036668732088E-01 4.656472287106E-01 2.925263651580E-02
C52 6.190330438820E-02 4.447275134271E-01 -6.082120936866E-02
H53 -1.645887009477E-01 2.726918143114E-02 -1.815425967232E-01
C54 -1.492800690474E-01 1.949130009701E-01 -1.780626589005E-01
H55 -4.656472287106E-01 -2.036668732088E-01 -2.925263651580E-02
C56 -4.447275134271E-01 -6.190330438820E-02 6.082120936866E-02
H57 -2.726918143114E-02 1.645887009477E-01 1.815425967232E-01
C58 -1.949130009701E-01 1.492800690474E-01 1.780626589005E-01
H59 2.559475678405E-01 3.525911412184E-01 2.105155426152E-01
H60 1.064727266533E-01 -3.860079997719E-01 1.581850022942E-01
H61 -3.525911412184E-01 -2.559475678405E-01 -2.105155426152E-01
H62 3.860079997719E-01 -1.064727266533E-01 -1.581850022942E-01
H63 1.275365124865E-01 -4.363584120664E-01 -2.757186810070E-02
C64 -6.612999172867E-02 3.469785799108E-01 -1.352373135310E-01
H65 -2.498359079875E-01 1.166430154865E-01 -2.358646093832E-01
H66 4.363584120664E-01 -1.275365124865E-01 2.757186810070E-02
C67 -3.469785799108E-01 6.612999172867E-02 1.352373135310E-01
H68 -1.166430154865E-01 2.498359079875E-01 2.358646093832E-01
H69 -1.000314125420E-01 3.898208938753E-01 -1.593204089838E-01
H70 -3.898208938753E-01 1.000314125420E-01 1.593204089838E-01
C71 4.721011454553E-01 -4.721011454553E-01 -5.000000000000E-01
C72 -4.099590821356E-01 -3.032197685068E-01 -4.498023018927E-01
C73 3.032197685068E-01 4.099590821356E-01 4.498023018927E-01
C74 -4.730806314027E-01 4.730806314027E-01 -5.000000000000E-01
C75 -2.334584125191E-01 -1.802661089052E-01 -4.111063003499E-01
C76 -4.730469277768E-01 -2.573694958268E-01 -4.256552859126E-01
C77 1.802661089052E-01 2.334584125191E-01 4.111063003499E-01
C78 2.573694958268E-01 4.730469277768E-01 4.256552859126E-01
C79 4.108932576108E-01 3.048602621831E-01 4.509674827671E-01
C80 -3.048602621831E-01 -4.108932576108E-01 -4.509674827671E-01
C81 -1.804731421336E-01 -2.347559814413E-01 -4.117992472894E-01
C82 -1.051415763864E-01 -3.384692207744E-03 -3.645848803234E-01
C83 -3.951622651084E-01 -1.087424947929E-01 -4.696507914055E-01
C84 4.001699017133E-01 -3.529383787205E-01 -3.505183218187E-01
C85 2.347559814413E-01 1.804731421336E-01 4.117992472894E-01
C86 3.384692207743E-03 1.051415763864E-01 3.645848803234E-01
C87 1.087424947929E-01 3.951622651084E-01 4.696507914055E-01
C88 3.529383787205E-01 -4.001699017133E-01 3.505183218187E-01
C89 4.754476463361E-01 2.606227656977E-01 4.278020833968E-01
C90 -2.606227656977E-01 -4.754476463361E-01 -4.278020833968E-01
C91 -5.001654782597E-03 -1.108674656743E-01 -3.658937103759E-01
H92 -1.431672176390E-01 3.913584372102E-02 -3.618914927619E-01
C93 6.204172475828E-02 1.115604800269E-01 -3.237986187688E-01
H94 -2.972138735078E-01 -3.343856973936E-02 4.717662625089E-01
C95 -4.421510962157E-01 -5.717614146237E-02 -4.393357382685E-01
H96 3.393621517790E-01 -4.676788298367E-01 -3.152661951062E-01
C97 3.509698121028E-01 -3.033128309014E-01 -3.205074480192E-01
C98 1.108674656743E-01 5.001654782597E-03 3.658937103759E-01
H99 -3.913584372102E-02 1.431672176390E-01 3.618914927619E-01
C100 -1.115604800269E-01 -6.204172475828E-02 3.237986187688E-01
H101 3.343856973936E-02 2.972138735078E-01 -4.717662625089E-01
C102 5.717614146237E-02 4.421510962157E-01 4.393357382685E-01
H103 4.676788298367E-01 -3.393621517790E-01 3.152661951062E-01
C104 3.033128309014E-01 -3.509698121028E-01 3.205074480192E-01
C105 3.946424622690E-01 1.097272692736E-01 4.708745236627E-01
C106 -3.973338130551E-01 3.568599165471E-01 3.529569211125E-01
C107 -1.097272692736E-01 -3.946424622690E-01 -4.708745236627E-01
C108 -3.568599165471E-01 3.973338130551E-01 -3.529569211125E-01
H109 3.318287309723E-02 -1.532096509299E-01 -3.640967473491E-01
C110 1.130318226667E-01 5.678584209063E-02 -3.242107052193E-01
H111 1.558904475937E-01 2.440892807572E-01 -2.892743033272E-01
H112 -3.791601810624E-01 5.942538292515E-02 -4.738614059020E-01
C113 4.300549992311E-01 -1.546054593218E-01 -3.648672219069E-01
H114 2.506200402799E-01 -3.815781951379E-01 -2.625919308273E-01
H115 1.532096509299E-01 -3.318287309723E-02 3.640967473491E-01
C116 -5.678584209063E-02 -1.130318226667E-01 3.242107052193E-01
H117 -2.440892807572E-01 -1.558904475937E-01 2.892743033272E-01
H118 -5.942538292515E-02 3.791601810624E-01 4.738614059020E-01
C119 1.546054593218E-01 -4.300549992311E-01 3.648672219069E-01
H120 3.815781951379E-01 -2.506200402799E-01 2.625919308273E-01
H121 2.963331267912E-01 3.435277128944E-02 -4.707473634842E-01
C122 4.380966956118E-01 5.527248657286E-02 4.391787906313E-01
H123 -3.354112990523E-01 4.727308185689E-01 3.184574032768E-01
C124 -3.507199309526E-01 3.050869990299E-01 3.219373410995E-01
H125 -3.435277128944E-02 -2.963331267912E-01 4.707473634842E-01
C126 -5.527248657286E-02 -4.380966956118E-01 -4.391787906313E-01
H127 -4.727308185689E-01 3.354112990523E-01 -3.184574032768E-01
C128 -3.050869990299E-01 3.507199309526E-01 -3.219373410995E-01
H129 2.440524321595E-01 1.474088587816E-01 -2.894844573848E-01
H130 3.935272733467E-01 -1.139920002281E-01 -3.418149977058E-01
H131 -1.474088587816E-01 -2.440524321595E-01 2.894844573848E-01
H132 1.139920002281E-01 -3.935272733467E-01 3.418149977058E-01
H133 3.724634875135E-01 -6.364158793362E-02 4.724281318993E-01
C134 -4.338700082713E-01 1.530214200892E-01 3.647626864690E-01
H135 -2.501640920125E-01 3.833569845135E-01 2.641353906168E-01
H136 6.364158793362E-02 -3.724634875135E-01 -4.724281318993E-01
C137 -1.530214200892E-01 4.338700082713E-01 -3.647626864690E-01
H138 -3.833569845135E-01 2.501640920125E-01 -2.641353906168E-01
H139 -3.999685874580E-01 1.101791061247E-01 3.406795910162E-01
H140 -1.101791061247E-01 3.999685874580E-01 -3.406795910162E-01


#===END
