###############################################################
#
#primitive cell cif file
#
###############################################################

negm43_data

_symmetry_space_group_name_H-M 'P 1'
_cell_length_a      13.86596031
_cell_length_b      13.86596031
_cell_length_c      14.21100000
_cell_angle_alpha   90.000000
_cell_angle_beta    90.000000
_cell_angle_gamma   150.032293

loop_
_atom_site_label
_atom_site_fract_x
_atom_site_fract_y
_atom_site_fract_z
C1 2.670335943378E-02 -2.811486370826E-02 -8.693759256210E-04
C2 -9.045632366921E-02 -1.966510523177E-01 4.862406307332E-02
C3 1.952689169924E-01 8.869133658446E-02 -5.060615226691E-02
C4 -2.670335943378E-02 2.811486370826E-02 8.693759256210E-04
C5 -2.653091113686E-01 -3.188794392420E-01 8.886269186095E-02
C6 -2.668013022562E-02 -2.416437052539E-01 7.196157545430E-02
C7 3.203813097192E-01 2.664764946710E-01 -8.823176049975E-02
C8 2.403640332217E-01 2.482529566147E-02 -7.458105523630E-02
C9 9.045632366921E-02 1.966510523177E-01 -4.862406307332E-02
C10 -1.952689169924E-01 -8.869133658446E-02 5.060615226691E-02
C11 -3.203813097192E-01 -2.664764946710E-01 8.823176049975E-02
C12 -3.883376066582E-01 -4.923083085875E-01 1.371792256067E-01
C13 -1.064642510047E-01 -3.919999155225E-01 2.907794906418E-02
C14 1.005715006270E-01 -1.447420933732E-01 1.469209426672E-01
C15 2.653091113686E-01 3.188794392420E-01 -8.886269186095E-02
C16 4.993053444221E-01 3.956533512811E-01 -1.323421836940E-01
C17 3.895303204110E-01 1.037310216180E-01 -3.039673586764E-02
C18 1.454596113592E-01 -1.019247846046E-01 -1.496038144016E-01
C19 2.668013022562E-02 2.416437052539E-01 -7.196157545430E-02
C20 -2.403640332217E-01 -2.482529566147E-02 7.458105523630E-02
C21 -4.993053444221E-01 -3.956533512811E-01 1.323421836940E-01
H22 -3.454069767299E-01 4.701526339664E-01 1.411597761891E-01
C23 4.433168738311E-01 3.898969424392E-01 1.778144763557E-01
H24 -2.049661590467E-01 -4.680894028297E-01 -2.929178694096E-02
C25 -6.124411315467E-02 -4.447425758517E-01 6.086236853888E-02
H26 1.615585790428E-01 -2.933725578258E-02 1.812525054684E-01
C27 1.483493779460E-01 -1.952209731493E-01 1.782232033039E-01
C28 3.883376066582E-01 4.923083085875E-01 -1.371792256067E-01
H29 -4.575286492153E-01 3.582161547012E-01 -1.328519836998E-01
C30 -3.855107548672E-01 -4.378555593200E-01 -1.741761996563E-01
H31 4.641192561415E-01 2.014868406544E-01 2.819458706593E-02
C32 4.428087961130E-01 5.850809501780E-02 -6.062310256126E-02
H33 3.025309581182E-02 -1.636679701259E-01 -1.850238961486E-01
C34 1.963791969193E-01 -1.499608789985E-01 -1.793320075774E-01
C35 1.064642510047E-01 3.919999155225E-01 -2.907794906418E-02
C36 -1.005715006270E-01 1.447420933732E-01 -1.469209426672E-01
C37 -3.895303204110E-01 -1.037310216180E-01 3.039673586764E-02
C38 -1.454596113592E-01 1.019247846046E-01 1.496038144016E-01
H39 4.575286492153E-01 -3.582161547012E-01 1.328519836998E-01
C40 3.855107548672E-01 4.378555593200E-01 1.741761996563E-01
H41 3.538125566012E-01 2.605738724763E-01 2.143533473914E-01
H42 -1.255782740180E-01 4.371182075878E-01 2.760163150025E-02
C43 6.685400080813E-02 -3.462643098151E-01 1.353574329075E-01
H44 2.488051685065E-01 -1.165294322181E-01 2.361396123342E-01
H45 3.454069767299E-01 -4.701526339664E-01 -1.411597761891E-01
C46 -4.433168738311E-01 -3.898969424392E-01 -1.778144763557E-01
H47 -2.512844146069E-01 -3.428881370235E-01 -2.068878918966E-01
H48 -4.398148215534E-01 1.227980574061E-01 -2.610883069847E-02
C49 3.461088107739E-01 -6.922099168940E-02 -1.350126587166E-01
H50 1.185353881305E-01 -2.504106992010E-01 -2.371330662217E-01
H51 2.049661590467E-01 4.680894028297E-01 2.929178694096E-02
C52 6.124411315467E-02 4.447425758517E-01 -6.086236853888E-02
H53 -1.615585790428E-01 2.933725578258E-02 -1.812525054684E-01
C54 -1.483493779460E-01 1.952209731493E-01 -1.782232033039E-01
H55 -4.641192561415E-01 -2.014868406544E-01 -2.819458706593E-02
C56 -4.428087961130E-01 -5.850809501780E-02 6.062310256126E-02
H57 -3.025309581182E-02 1.636679701259E-01 1.850238961486E-01
C58 -1.963791969193E-01 1.499608789985E-01 1.793320075774E-01
H59 2.512844146069E-01 3.428881370235E-01 2.068878918966E-01
H60 1.020889604282E-01 -3.877662410823E-01 1.595011568730E-01
H61 -3.538125566012E-01 -2.605738724763E-01 -2.143533473914E-01
H62 3.880626525649E-01 -1.044151787672E-01 -1.580042544050E-01
H63 1.255782740180E-01 -4.371182075878E-01 -2.760163150025E-02
C64 -6.685400080813E-02 3.462643098151E-01 -1.353574329075E-01
H65 -2.488051685065E-01 1.165294322181E-01 -2.361396123342E-01
H66 4.398148215534E-01 -1.227980574061E-01 2.610883069847E-02
C67 -3.461088107739E-01 6.922099168940E-02 1.350126587166E-01
H68 -1.185353881305E-01 2.504106992010E-01 2.371330662217E-01
H69 -1.020889604282E-01 3.877662410823E-01 -1.595011568730E-01
H70 -3.880626525649E-01 1.044151787672E-01 1.580042544050E-01
C71 4.718851362917E-01 -4.732966405662E-01 -4.991306240744E-01
C72 -4.113086634155E-01 -3.047310830076E-01 -4.493938477331E-01
C73 3.033489476823E-01 4.095436763308E-01 4.513759369267E-01
C74 -4.718851362917E-01 4.732966405662E-01 4.991306240744E-01
C75 -2.335235053290E-01 -1.796186902808E-01 -4.117682395002E-01
C76 -4.751747043385E-01 -2.596359667783E-01 -4.254189447637E-01
C77 1.811205607580E-01 2.346908886314E-01 4.111373081390E-01
C78 2.583562947461E-01 4.733198697744E-01 4.280384245457E-01
C79 4.113086634155E-01 3.047310830076E-01 4.493938477331E-01
C80 -3.033489476823E-01 -4.095436763308E-01 -4.513759369267E-01
C81 -1.811205607580E-01 -2.346908886314E-01 -4.111373081390E-01
C82 -1.043466487189E-01 -6.946555778635E-04 -3.676578163060E-01
C83 -3.962689783820E-01 -1.104696795890E-01 -4.696032641324E-01
C84 3.980752153954E-01 -3.545403886408E-01 -3.503961855984E-01
C85 2.335235053290E-01 1.796186902808E-01 4.117682395002E-01
C86 7.691691412477E-03 1.116623933418E-01 3.628207743933E-01
C87 1.080000844775E-01 3.935357489953E-01 4.709220509358E-01
C88 3.552579066268E-01 -3.994284993730E-01 3.530790573328E-01
C89 4.751747043385E-01 2.596359667783E-01 4.254189447637E-01
C90 -2.583562947461E-01 -4.733198697744E-01 -4.280384245457E-01
C91 -7.691691412477E-03 -1.116623933418E-01 -3.628207743933E-01
H92 -1.417838452988E-01 4.247135078469E-02 -3.671480163002E-01
C93 6.214444068002E-02 1.144892451328E-01 -3.258238003437E-01
H94 -2.985131593456E-01 -3.588074385854E-02 4.718054129341E-01
C95 -4.414919049822E-01 -5.719120388698E-02 -4.393768974387E-01
H96 3.363320298741E-01 -4.697469041882E-01 -3.149761038514E-01
C97 3.500391210015E-01 -3.036208030807E-01 -3.206679924226E-01
C98 1.043466487189E-01 6.946555778634E-04 3.676578163060E-01
H99 -2.984736603356E-02 1.545930232701E-01 3.588402238109E-01
C100 -1.101030575608E-01 -5.668312616890E-02 3.221855236443E-01
H101 3.191059717026E-02 2.950338409533E-01 -4.707082130590E-01
C102 5.525742414825E-02 4.387558868453E-01 4.391376314611E-01
H103 4.706627442174E-01 -3.384414209572E-01 3.187474945316E-01
C104 3.047790268507E-01 -3.516506220540E-01 3.217767966961E-01
C105 3.962689783820E-01 1.104696795890E-01 4.696032641324E-01
C106 -3.980752153954E-01 3.545403886408E-01 3.503961855984E-01
C107 -1.080000844775E-01 -3.935357489953E-01 -4.709220509358E-01
C108 -3.552579066268E-01 3.994284993730E-01 -3.530790573328E-01
H109 2.984736603356E-02 -1.545930232701E-01 -3.588402238109E-01
C110 1.101030575608E-01 5.668312616890E-02 -3.221855236443E-01
H111 1.571118629765E-01 2.487155853931E-01 -2.931121081034E-01
H112 -3.772019425939E-01 6.018517844661E-02 -4.738911693015E-01
C113 4.307790083106E-01 -1.538911892261E-01 -3.649873412834E-01
H114 2.495893007990E-01 -3.814646118695E-01 -2.628669337783E-01
H115 1.417838452988E-01 -4.247135078469E-02 3.671480163002E-01
C116 -6.214444068002E-02 -1.144892451328E-01 3.258238003437E-01
H117 -2.394261275237E-01 -1.461874433988E-01 2.856466526086E-01
H118 -6.288179241216E-02 3.744217259820E-01 4.723983684998E-01
C119 1.537356901849E-01 -4.331459991919E-01 3.646425670925E-01
H120 3.834705677819E-01 -2.511948314935E-01 2.638603876658E-01
H121 2.985131593456E-01 3.588074385854E-02 -4.718054129341E-01
C122 4.414919049822E-01 5.719120388698E-02 4.393768974387E-01
H123 -3.363320298741E-01 4.697469041882E-01 3.149761038514E-01
C124 -3.500391210015E-01 3.036208030807E-01 3.206679924226E-01
H125 -3.191059717026E-02 -2.950338409533E-01 4.707082130590E-01
C126 -5.525742414825E-02 -4.387558868453E-01 -4.391376314611E-01
H127 -4.706627442174E-01 3.384414209572E-01 -3.187474945316E-01
C128 -3.047790268507E-01 3.516506220540E-01 -3.217767966961E-01
H129 2.394261275237E-01 1.461874433988E-01 -2.856466526086E-01
H130 3.955848212328E-01 -1.119373474351E-01 -3.419957455950E-01
H131 -1.571118629765E-01 -2.487155853931E-01 2.931121081034E-01
H132 1.122337589177E-01 -3.979110395718E-01 3.404988431270E-01
H133 3.772019425939E-01 -6.018517844661E-02 4.738911693015E-01
C134 -4.307790083106E-01 1.538911892261E-01 3.649873412834E-01
H135 -2.495893007990E-01 3.814646118695E-01 2.628669337783E-01
H136 6.288179241216E-02 -3.744217259820E-01 -4.723983684998E-01
C137 -1.537356901849E-01 4.331459991919E-01 -3.646425670925E-01
H138 -3.834705677819E-01 2.511948314935E-01 -2.638603876658E-01
H139 -3.955848212328E-01 1.119373474351E-01 3.419957455950E-01
H140 -1.122337589177E-01 3.979110395718E-01 -3.404988431270E-01


#===END
