###############################################################
#
#primitive cell cif file
#
###############################################################

negm22_data

_symmetry_space_group_name_H-M 'P 1'
_cell_length_a      13.86596031
_cell_length_b      13.86596031
_cell_length_c      14.21100000
_cell_angle_alpha   90.000000
_cell_angle_beta    90.000000
_cell_angle_gamma   150.032293

loop_
_atom_site_label
_atom_site_fract_x
_atom_site_fract_y
_atom_site_fract_z
C1 2.998591294033E-02 -2.483231020170E-02 7.714323424108E-04
C2 -8.736198998771E-02 -1.937768001501E-01 5.011589536655E-02
C3 1.981431691600E-01 9.178567026596E-02 -4.911431997368E-02
C4 -2.483231020170E-02 2.998591294033E-02 7.714323424108E-04
C5 -2.649630363031E-01 -3.187023777909E-01 8.778089703321E-02
C6 -2.420497546972E-02 -2.395008104433E-01 7.393924391570E-02
C7 3.205583711703E-01 2.668225697365E-01 -8.931355532749E-02
C8 2.425069280323E-01 2.730045041737E-02 -7.260338677489E-02
C9 9.178567026596E-02 1.981431691600E-01 -4.911431997368E-02
C10 -1.937768001501E-01 -8.736198998771E-02 5.011589536655E-02
C11 -3.187023777909E-01 -2.649630363031E-01 8.778089703321E-02
C12 -3.933619182589E-01 -4.971927004586E-01 1.320323669839E-01
C13 -1.001208075047E-01 -3.860088224666E-01 2.838637157455E-02
C14 9.798982355761E-02 -1.483495909746E-01 1.507601889424E-01
C15 2.668225697365E-01 3.205583711703E-01 -8.931355532749E-02
C16 4.944209525511E-01 3.906290396804E-01 -1.374890423168E-01
C17 3.955214134670E-01 1.100744651180E-01 -3.108831335726E-02
C18 1.418521137577E-01 -1.045064616740E-01 -1.457645681264E-01
C19 2.730045041737E-02 2.425069280323E-01 -7.260338677489E-02
C20 -2.395008104433E-01 -2.420497546972E-02 7.393924391570E-02
C21 -4.971927004586E-01 -3.933619182589E-01 1.320323669839E-01
H22 -3.530734085513E-01 4.625476194537E-01 1.343086031554E-01
C23 4.365310139235E-01 3.836442591256E-01 1.709264173876E-01
H24 -1.945213815811E-01 -4.576613125257E-01 -3.152118390986E-02
C25 -5.582401362262E-02 -4.400735847408E-01 5.894891264549E-02
H26 1.563389166848E-01 -3.599366732746E-02 1.874729240240E-01
C27 1.447444132666E-01 -2.003452538055E-01 1.809919905310E-01
C28 3.906290396804E-01 4.944209525511E-01 -1.374890423168E-01
H29 -4.651336637281E-01 3.505497228798E-01 -1.397031567335E-01
C30 -3.917634381808E-01 -4.446414192276E-01 -1.810642586244E-01
H31 4.745473464455E-01 2.119316181200E-01 2.596519009704E-02
C32 4.474777872239E-01 6.392819454985E-02 -6.253655845465E-02
H33 2.359668426694E-02 -1.688876324840E-01 -1.788034775931E-01
C34 1.912549162632E-01 -1.535658436779E-01 -1.765632203503E-01
C35 1.100744651180E-01 3.955214134670E-01 -3.108831335726E-02
C36 -1.045064616740E-01 1.418521137577E-01 -1.457645681264E-01
C37 -3.860088224666E-01 -1.001208075047E-01 2.838637157455E-02
C38 -1.483495909746E-01 9.798982355761E-02 1.507601889424E-01
H39 4.625476194537E-01 -3.530734085513E-01 1.343086031554E-01
C40 3.836442591256E-01 4.365310139235E-01 1.709264173876E-01
H41 3.419681074687E-01 2.496141164457E-01 2.037283088396E-01
H42 -1.172644751026E-01 4.449162752981E-01 2.332886316248E-02
C43 6.737974614727E-02 -3.471643650591E-01 1.352138170889E-01
H44 2.417128067373E-01 -1.255179057103E-01 2.402543886802E-01
H45 3.505497228798E-01 -4.651336637281E-01 -1.397031567335E-01
C46 -4.446414192276E-01 -3.917634381808E-01 -1.810642586244E-01
H47 -2.622441706375E-01 -3.547325861561E-01 -2.175129304484E-01
H48 -4.320167538431E-01 1.311118563215E-01 -3.038159903624E-02
C49 3.452087555299E-01 -6.869524635027E-02 -1.351562745352E-01
H50 1.095469146383E-01 -2.575030609703E-01 -2.330182898757E-01
H51 2.119316181200E-01 4.745473464455E-01 2.596519009704E-02
C52 6.392819454985E-02 4.474777872239E-01 -6.253655845465E-02
H53 -1.688876324840E-01 2.359668426694E-02 -1.788034775931E-01
C54 -1.535658436779E-01 1.912549162632E-01 -1.765632203503E-01
H55 -4.576613125257E-01 -1.945213815811E-01 -3.152118390986E-02
C56 -4.400735847408E-01 -5.582401362262E-02 5.894891264549E-02
H57 -3.599366732746E-02 1.563389166848E-01 1.874729240240E-01
C58 -2.003452538055E-01 1.447444132666E-01 1.809919905310E-01
H59 2.496141164457E-01 3.419681074687E-01 2.037283088396E-01
H60 1.016584067500E-01 -3.899313293274E-01 1.584793069178E-01
H61 -3.547325861561E-01 -2.622441706375E-01 -2.175129304484E-01
H62 3.858975643199E-01 -1.048457324454E-01 -1.590261043602E-01
H63 1.311118563215E-01 -4.320167538431E-01 -3.038159903624E-02
C64 -6.869524635027E-02 3.452087555299E-01 -1.351562745352E-01
H65 -2.575030609703E-01 1.095469146383E-01 -2.330182898757E-01
H66 4.449162752981E-01 -1.172644751026E-01 2.332886316248E-02
C67 -3.471643650591E-01 6.737974614727E-02 1.352138170889E-01
H68 -1.255179057103E-01 2.417128067373E-01 2.402543886802E-01
H69 -1.048457324454E-01 3.858975643199E-01 -1.590261043602E-01
H70 -3.899313293274E-01 1.016584067500E-01 1.584793069178E-01
C71 4.751676897983E-01 -4.700140870597E-01 4.992285676576E-01
C72 -4.082143297340E-01 -3.018568308400E-01 -4.508856800263E-01
C73 3.062231998499E-01 4.126380100123E-01 4.498841046335E-01
C74 -4.700140870597E-01 4.751676897983E-01 4.992285676576E-01
C75 -2.331774302635E-01 -1.794416288297E-01 -4.106864446725E-01
C76 -4.726995495826E-01 -2.574930719677E-01 -4.273966132251E-01
C77 1.812976222091E-01 2.350369636969E-01 4.122191029668E-01
C78 2.604991895567E-01 4.757950245303E-01 4.260607560843E-01
C79 4.126380100123E-01 3.062231998499E-01 4.498841046335E-01
C80 -3.018568308400E-01 -4.082143297340E-01 -4.508856800263E-01
C81 -1.794416288297E-01 -2.331774302635E-01 -4.106864446725E-01
C82 -1.093709603196E-01 -5.579047448912E-03 -3.625109576832E-01
C83 -3.899255348820E-01 -1.044785865330E-01 -4.689116866427E-01
C84 3.954935383260E-01 -3.581478862423E-01 -3.542354318736E-01
C85 2.350369636969E-01 1.812976222091E-01 4.122191029668E-01
C86 2.807299541429E-03 1.066380817411E-01 3.679676330161E-01
C87 1.139911775334E-01 3.998791924953E-01 4.716136284254E-01
C88 3.516504090254E-01 -4.020101764424E-01 3.492398110576E-01
C89 4.757950245303E-01 2.604991895567E-01 4.260607560843E-01
C90 -2.574930719677E-01 -4.726995495826E-01 -4.273966132251E-01
C91 -5.579047448912E-03 -1.093709603196E-01 -3.625109576832E-01
H92 -1.494502771202E-01 3.486633627194E-02 -3.602968432665E-01
C93 5.535858077243E-02 1.082365618192E-01 -3.189357413756E-01
H94 -2.880683818800E-01 -2.545265355454E-02 4.740348099030E-01
C95 -4.360718054502E-01 -5.252221277607E-02 -4.374634415454E-01
H96 3.311123675160E-01 -4.764033157331E-01 -3.211965224069E-01
C97 3.464341563221E-01 -3.087450837368E-01 -3.234367796497E-01
C98 1.066380817411E-01 2.807299541429E-03 3.679676330161E-01
H99 -3.745238054631E-02 1.469265914487E-01 3.656913968446E-01
C100 -1.163557408744E-01 -6.346898607648E-02 3.290735826124E-01
H101 4.233868747426E-02 3.054786184189E-01 -4.684788160901E-01
C102 5.992641525916E-02 4.441759863774E-01 4.410510873545E-01
H103 4.640063326725E-01 -3.436610833152E-01 3.125270759760E-01
C104 2.996547461945E-01 -3.552555867334E-01 3.190080094690E-01
C105 3.998791924953E-01 1.139911775334E-01 4.716136284254E-01
C106 -4.020101764424E-01 3.516504090254E-01 3.492398110576E-01
C107 -1.044785865330E-01 -3.899255348820E-01 -4.689116866427E-01
C108 -3.581478862423E-01 3.954935383260E-01 -3.542354318736E-01
H109 3.486633627194E-02 -1.494502771202E-01 -3.602968432665E-01
C110 1.082365618192E-01 5.535858077243E-02 -3.189357413756E-01
H111 1.452674138439E-01 2.377558293625E-01 -2.824870695516E-01
H112 -3.688881436785E-01 6.798324615692E-02 -4.696184009638E-01
C113 4.313047536497E-01 -1.547912444701E-01 -3.648437254648E-01
H114 2.424969390297E-01 -3.904530853617E-01 -2.669817101243E-01
H115 1.469265914487E-01 -3.745238054631E-02 3.656913968446E-01
C116 -6.346898607648E-02 -1.163557408744E-01 3.290735826124E-01
H117 -2.503858835543E-01 -1.580318925313E-01 2.962716911604E-01
H118 -5.508372470185E-02 3.827355248974E-01 4.766711368375E-01
C119 1.528356349409E-01 -4.326202538527E-01 3.647861829111E-01
H120 3.744820942897E-01 -2.582871932627E-01 2.597456113198E-01
H121 3.054786184189E-01 4.233868747426E-02 -4.684788160901E-01
C122 4.441759863774E-01 5.992641525916E-02 4.410510873545E-01
H123 -3.436610833152E-01 4.640063326725E-01 3.125270759760E-01
C124 -3.552555867334E-01 2.996547461945E-01 3.190080094690E-01
H125 -2.545265355454E-02 -2.880683818800E-01 4.740348099030E-01
C126 -5.252221277607E-02 -4.360718054502E-01 -4.374634415454E-01
H127 -4.764033157331E-01 3.311123675160E-01 -3.211965224069E-01
C128 -3.087450837368E-01 3.464341563221E-01 -3.234367796497E-01
H129 2.377558293625E-01 1.452674138439E-01 -2.824870695516E-01
H130 3.951542675546E-01 -1.141024356801E-01 -3.409738956398E-01
H131 -1.580318925313E-01 -2.503858835543E-01 2.962716911604E-01
H132 1.100686706726E-01 -3.983415932500E-01 3.415206930822E-01
H133 3.827355248974E-01 -5.508372470185E-02 4.766711368375E-01
C134 -4.326202538527E-01 1.528356349409E-01 3.647861829111E-01
H135 -2.582871932627E-01 3.744820942897E-01 2.597456113198E-01
H136 6.798324615692E-02 -3.688881436785E-01 -4.696184009638E-01
C137 -1.547912444701E-01 4.313047536497E-01 -3.648437254648E-01
H138 -3.904530853617E-01 2.424969390297E-01 -2.669817101243E-01
H139 -3.983415932500E-01 1.100686706726E-01 3.415206930822E-01
H140 -1.141024356801E-01 3.951542675546E-01 -3.409738956398E-01


#===END
