###############################################################
#
#primitive cell cif file
#
###############################################################

negm15_data

_symmetry_space_group_name_H-M 'P 1'
_cell_length_a      13.86596031
_cell_length_b      13.86596031
_cell_length_c      14.21100000
_cell_angle_alpha   90.000000
_cell_angle_beta    90.000000
_cell_angle_gamma   150.032293

loop_
_atom_site_label
_atom_site_fract_x
_atom_site_fract_y
_atom_site_fract_z
C1 2.740523418332E-02 -2.740523418332E-02 0.000000000000E+00
C2 -8.878856266711E-02 -1.952273401100E-01 5.012015992731E-02
C3 1.952273401100E-01 8.878856266711E-02 -5.012015992731E-02
C4 -2.740523418332E-02 2.740523418332E-02 0.000000000000E+00
C5 -2.651332400135E-01 -3.189035237312E-01 8.907107792682E-02
C6 -2.258397994746E-02 -2.375646168272E-01 7.498310708578E-02
C7 3.189035237312E-01 2.651332400135E-01 -8.907107792682E-02
C8 2.375646168272E-01 2.258397994746E-02 -7.498310708578E-02
C9 8.878856266711E-02 1.952273401100E-01 -5.012015992731E-02
C10 -1.952273401100E-01 -8.878856266711E-02 5.012015992731E-02
C11 -3.189035237312E-01 -2.651332400135E-01 8.907107792682E-02
C12 -3.906695614947E-01 -4.944977361589E-01 1.357698195994E-01
C13 -1.024949296917E-01 -3.892019641094E-01 3.404904071902E-02
C14 1.082517572864E-01 -1.361486524785E-01 1.488755094558E-01
C15 2.651332400135E-01 3.189035237312E-01 -8.907107792682E-02
C16 4.944977361589E-01 3.906695614947E-01 -1.357698195994E-01
C17 3.892019641094E-01 1.024949296917E-01 -3.404904071902E-02
C18 1.361486524785E-01 -1.082517572864E-01 -1.488755094558E-01
C19 2.258397994746E-02 2.375646168272E-01 -7.498310708578E-02
C20 -2.375646168272E-01 -2.258397994746E-02 7.498310708578E-02
C21 -4.944977361589E-01 -3.906695614947E-01 1.357698195994E-01
H22 -3.506330812713E-01 4.649947582166E-01 1.379128735075E-01
C23 4.426797054291E-01 3.898076736699E-01 1.776544155246E-01
H24 -2.034522706646E-01 -4.687355207652E-01 -2.364328910851E-02
C25 -5.431260266043E-02 -4.387989718004E-01 6.655935075737E-02
H26 1.697395619865E-01 -1.965303452261E-02 1.818355233741E-01
C27 1.590062196783E-01 -1.834519777494E-01 1.809162986501E-01
C28 3.906695614947E-01 4.944977361589E-01 -1.357698195994E-01
H29 -4.649947582166E-01 3.506330812713E-01 -1.379128735075E-01
C30 -3.898076736699E-01 -4.426797054291E-01 -1.776544155246E-01
H31 4.687355207652E-01 2.034522706646E-01 2.364328910851E-02
C32 4.387989718004E-01 5.431260266043E-02 -6.655935075737E-02
H33 1.965303452261E-02 -1.697395619865E-01 -1.818355233741E-01
C34 1.834519777494E-01 -1.590062196783E-01 -1.809162986501E-01
C35 1.024949296917E-01 3.892019641094E-01 -3.404904071902E-02
C36 -1.082517572864E-01 1.361486524785E-01 -1.488755094558E-01
C37 -3.892019641094E-01 -1.024949296917E-01 3.404904071902E-02
C38 -1.361486524785E-01 1.082517572864E-01 1.488755094558E-01
H39 4.649947582166E-01 -3.506330812713E-01 1.379128735075E-01
C40 3.898076736699E-01 4.426797054291E-01 1.776544155246E-01
H41 3.511596030613E-01 2.587732347664E-01 2.128914073160E-01
H42 -1.192335759040E-01 4.417543362136E-01 3.482607308852E-02
C43 7.733220421140E-02 -3.356881770789E-01 1.399376929937E-01
H44 2.618398287776E-01 -1.014849045930E-01 2.380437818467E-01
H45 3.506330812713E-01 -4.649947582166E-01 -1.379128735075E-01
C46 -4.426797054291E-01 -3.898076736699E-01 -1.776544155246E-01
H47 -2.587732347664E-01 -3.511596030613E-01 -2.128914073160E-01
H48 -4.417543362136E-01 1.192335759040E-01 -3.482607308852E-02
C49 3.356881770789E-01 -7.733220421140E-02 -1.399376929937E-01
H50 1.014849045930E-01 -2.618398287776E-01 -2.380437818467E-01
H51 2.034522706646E-01 4.687355207652E-01 2.364328910851E-02
C52 5.431260266043E-02 4.387989718004E-01 -6.655935075737E-02
H53 -1.697395619865E-01 1.965303452261E-02 -1.818355233741E-01
C54 -1.590062196783E-01 1.834519777494E-01 -1.809162986501E-01
H55 -4.687355207652E-01 -2.034522706646E-01 -2.364328910851E-02
C56 -4.387989718004E-01 -5.431260266043E-02 6.655935075737E-02
H57 -1.965303452261E-02 1.697395619865E-01 1.818355233741E-01
C58 -1.834519777494E-01 1.590062196783E-01 1.809162986501E-01
H59 2.587732347664E-01 3.511596030613E-01 2.128914073160E-01
H60 1.149134394877E-01 -3.746729770707E-01 1.645925761493E-01
H61 -3.511596030613E-01 -2.587732347664E-01 -2.128914073160E-01
H62 3.746729770707E-01 -1.149134394877E-01 -1.645925761493E-01
H63 1.192335759040E-01 -4.417543362136E-01 -3.482607308852E-02
C64 -7.733220421140E-02 3.356881770789E-01 -1.399376929937E-01
H65 -2.618398287776E-01 1.014849045930E-01 -2.380437818467E-01
H66 4.417543362136E-01 -1.192335759040E-01 3.482607308852E-02
C67 -3.356881770789E-01 7.733220421140E-02 1.399376929937E-01
H68 -1.014849045930E-01 2.618398287776E-01 2.380437818467E-01
H69 -1.149134394877E-01 3.746729770707E-01 -1.645925761493E-01
H70 -3.746729770707E-01 1.149134394877E-01 1.645925761493E-01
C71 4.725870110413E-01 -4.725870110413E-01 -5.000000000000E-01
C72 -4.096409024134E-01 -3.033073707999E-01 -4.508899445871E-01
C73 3.033073707999E-01 4.096409024134E-01 4.508899445871E-01
C74 -4.725870110413E-01 4.725870110413E-01 -5.000000000000E-01
C75 -2.333476339739E-01 -1.796427747700E-01 -4.119766255661E-01
C76 -4.710785540604E-01 -2.555568783516E-01 -4.284404763952E-01
C77 1.796427747700E-01 2.333476339739E-01 4.119766255661E-01
C78 2.555568783516E-01 4.710785540604E-01 4.284404763952E-01
C79 4.096409024134E-01 3.033073707999E-01 4.508899445871E-01
C80 -3.033073707999E-01 -4.096409024134E-01 -4.508899445871E-01
C81 -1.796427747700E-01 -2.333476339739E-01 -4.119766255661E-01
C82 -1.066786035554E-01 -2.884083149233E-03 -3.662484102987E-01
C83 -3.922996570691E-01 -1.076717281758E-01 -4.745743557872E-01
C84 4.057554720547E-01 -3.459469477462E-01 -3.523507523870E-01
C85 2.333476339739E-01 1.796427747700E-01 4.119766255661E-01
C86 2.884083149233E-03 1.066786035554E-01 3.662484102987E-01
C87 1.076717281758E-01 3.922996570691E-01 4.745743557872E-01
C88 3.459469477462E-01 -4.057554720547E-01 3.523507523870E-01
C89 4.710785540604E-01 2.555568783516E-01 4.284404763952E-01
C90 -2.555568783516E-01 -4.710785540604E-01 -4.284404763952E-01
C91 -2.884083149233E-03 -1.066786035554E-01 -3.662484102987E-01
H92 -1.470099498402E-01 3.731347503488E-02 -3.639011136185E-01
C93 6.150727227800E-02 1.143999763636E-01 -3.256637395126E-01
H94 -2.969992709636E-01 -3.652686179401E-02 4.661569151016E-01
C95 -4.345603944880E-01 -5.124759983561E-02 -4.450738796572E-01
H96 3.445130128177E-01 -4.600626829282E-01 -3.155591217570E-01
C97 3.606959627337E-01 -2.918518076807E-01 -3.233610877688E-01
C98 1.066786035554E-01 2.884083149233E-03 3.662484102987E-01
H99 -3.731347503488E-02 1.470099498402E-01 3.639011136185E-01
C100 -1.143999763636E-01 -6.150727227800E-02 3.256637395126E-01
H101 3.652686179401E-02 2.969992709636E-01 -4.661569151016E-01
C102 5.124759983561E-02 4.345603944880E-01 4.450738796572E-01
H103 4.600626829282E-01 -3.445130128177E-01 3.155591217570E-01
C104 2.918518076807E-01 -3.606959627337E-01 3.233610877688E-01
C105 3.922996570691E-01 1.076717281758E-01 4.745743557872E-01
C106 -4.057554720547E-01 3.459469477462E-01 3.523507523870E-01
C107 -1.076717281758E-01 -3.922996570691E-01 -4.745743557872E-01
C108 -3.459469477462E-01 4.057554720547E-01 -3.523507523870E-01
H109 3.731347503488E-02 -1.470099498402E-01 -3.639011136185E-01
C110 1.143999763636E-01 6.150727227800E-02 -3.256637395126E-01
H111 1.544589094365E-01 2.469149476831E-01 -2.916501680280E-01
H112 -3.708572444799E-01 6.482130707237E-02 -4.811156108898E-01
C113 4.412572117139E-01 -1.433150564899E-01 -3.695676013696E-01
H114 2.626239610700E-01 -3.664200842444E-01 -2.647711032908E-01
H115 1.470099498402E-01 -3.731347503488E-02 3.639011136185E-01
C116 -6.150727227800E-02 -1.143999763636E-01 3.256637395126E-01
H117 -2.469149476831E-01 -1.544589094365E-01 2.916501680280E-01
H118 -6.482130707237E-02 3.708572444799E-01 4.811156108898E-01
C119 1.433150564899E-01 -4.412572117139E-01 3.695676013696E-01
H120 3.664200842444E-01 -2.626239610700E-01 2.647711032908E-01
H121 2.969992709636E-01 3.652686179401E-02 -4.661569151016E-01
C122 4.345603944880E-01 5.124759983561E-02 4.450738796572E-01
H123 -3.445130128177E-01 4.600626829282E-01 3.155591217570E-01
C124 -3.606959627337E-01 2.918518076807E-01 3.233610877688E-01
H125 -3.652686179401E-02 -2.969992709636E-01 4.661569151016E-01
C126 -5.124759983561E-02 -4.345603944880E-01 -4.450738796572E-01
H127 -4.600626829282E-01 3.445130128177E-01 -3.155591217570E-01
C128 -2.918518076807E-01 3.606959627337E-01 -3.233610877688E-01
H129 2.469149476831E-01 1.544589094365E-01 -2.916501680280E-01
H130 4.084093002924E-01 -9.884408342348E-02 -3.470871648713E-01
H131 -1.544589094365E-01 -2.469149476831E-01 2.916501680280E-01
H132 9.884408342348E-02 -4.084093002924E-01 3.470871648713E-01
H133 3.708572444799E-01 -6.482130707237E-02 4.811156108898E-01
C134 -4.412572117139E-01 1.433150564899E-01 3.695676013696E-01
H135 -2.626239610700E-01 3.664200842444E-01 2.647711032908E-01
H136 6.482130707237E-02 -3.708572444799E-01 -4.811156108898E-01
C137 -1.433150564899E-01 4.412572117139E-01 -3.695676013696E-01
H138 -3.664200842444E-01 2.626239610700E-01 -2.647711032908E-01
H139 -4.084093002924E-01 9.884408342348E-02 3.470871648713E-01
H140 -9.884408342348E-02 4.084093002924E-01 -3.470871648713E-01


#===END
