###############################################################
#
#primitive cell cif file
#
###############################################################

negm37_data

_symmetry_space_group_name_H-M 'P 1'
_cell_length_a      13.86596031
_cell_length_b      13.86596031
_cell_length_c      14.21100000
_cell_angle_alpha   90.000000
_cell_angle_beta    90.000000
_cell_angle_gamma   150.032293

loop_
_atom_site_label
_atom_site_fract_x
_atom_site_fract_y
_atom_site_fract_z
C1 2.569404964675E-02 -2.912417349529E-02 -2.338980774752E-04
C2 -9.070360758036E-02 -1.971389649884E-01 4.972117702906E-02
C3 1.947810043217E-01 8.844405267331E-02 -4.950903831117E-02
C4 -2.912417349529E-02 2.569404964675E-02 -2.338980774752E-04
C5 -2.660946470710E-01 -3.198258753558E-01 8.947623311027E-02
C6 -2.652655862921E-02 -2.418735202974E-01 7.342715588080E-02
C7 3.194348736055E-01 2.656909589686E-01 -8.761821925044E-02
C8 2.401342181781E-01 2.497886725788E-02 -7.311547480980E-02
C9 8.844405267331E-02 1.947810043217E-01 -4.950903831117E-02
C10 -1.971389649884E-01 -9.070360758036E-02 4.972117702906E-02
C11 -3.198258753558E-01 -2.660946470710E-01 8.947623311027E-02
C12 -3.910404349930E-01 -4.948674821392E-01 1.365776596966E-01
C13 -1.024460539284E-01 -3.888398091120E-01 2.873343503610E-02
C14 9.766363966447E-02 -1.481670318098E-01 1.495844938045E-01
C15 2.656909589686E-01 3.194348736055E-01 -8.761821925044E-02
C16 4.967461708704E-01 3.929505229463E-01 -1.329437496041E-01
C17 3.926904268215E-01 1.077492186942E-01 -3.074124989571E-02
C18 1.420346729225E-01 -1.048326455672E-01 -1.469402632642E-01
C19 2.497886725788E-02 2.401342181781E-01 -7.311547480980E-02
C20 -2.418735202974E-01 -2.652655862921E-02 7.342715588080E-02
C21 -4.948674821392E-01 -3.910404349930E-01 1.365776596966E-01
H22 -3.510746255342E-01 4.645298547964E-01 1.383734977201E-01
C23 4.429639550309E-01 3.900737061591E-01 1.790923362381E-01
H24 -1.982304106231E-01 -4.623922665527E-01 -3.071631050946E-02
C25 -5.626513965559E-02 -4.409614648789E-01 5.962402640609E-02
H26 1.568436196670E-01 -3.459535266196E-02 1.850719327956E-01
C27 1.457581076684E-01 -1.986096832988E-01 1.803284799872E-01
C28 3.929505229463E-01 4.967461708704E-01 -1.329437496041E-01
H29 -4.631514283854E-01 3.525485058970E-01 -1.356382621688E-01
C30 -3.853339911473E-01 -4.382084781202E-01 -1.728983397738E-01
H31 4.698163924185E-01 2.082225890780E-01 2.677006349743E-02
C32 4.465899070859E-01 6.348706851687E-02 -6.186144469404E-02
H33 2.499499893245E-02 -1.683829295018E-01 -1.812044688215E-01
C34 1.929904867698E-01 -1.525521492761E-01 -1.772267308941E-01
C35 1.077492186942E-01 3.926904268215E-01 -3.074124989571E-02
C36 -1.048326455672E-01 1.420346729225E-01 -1.469402632642E-01
C37 -3.888398091120E-01 -1.024460539284E-01 2.873343503610E-02
C38 -1.481670318098E-01 9.766363966447E-02 1.495844938045E-01
H39 4.645298547964E-01 -3.510746255342E-01 1.383734977201E-01
C40 3.900737061591E-01 4.429639550309E-01 1.790923362381E-01
H41 3.515832674918E-01 2.590691177946E-01 2.143154904803E-01
H42 -1.175294231948E-01 4.437607215800E-01 2.464593688558E-02
C43 6.835638224409E-02 -3.459723529219E-01 1.354491004454E-01
H44 2.439763850384E-01 -1.220574073344E-01 2.391575907778E-01
H45 3.525485058970E-01 -4.631514283854E-01 -1.356382621688E-01
C46 -4.382084781202E-01 -3.853339911473E-01 -1.728983397738E-01
H47 -2.527891692886E-01 -3.451174261329E-01 -2.069257488078E-01
H48 -4.331723075613E-01 1.308469082293E-01 -2.906452531314E-02
C49 3.464007676671E-01 -6.771861025345E-02 -1.349209911787E-01
H50 1.130074130142E-01 -2.552394826692E-01 -2.341150877781E-01
H51 2.082225890780E-01 4.698163924185E-01 2.677006349743E-02
C52 6.348706851687E-02 4.465899070859E-01 -6.186144469404E-02
H53 -1.683829295018E-01 2.499499893245E-02 -1.812044688215E-01
C54 -1.525521492761E-01 1.929904867698E-01 -1.772267308941E-01
H55 -4.623922665527E-01 -1.982304106231E-01 -3.071631050946E-02
C56 -4.409614648789E-01 -5.626513965559E-02 5.962402640609E-02
H57 -3.459535266196E-02 1.568436196670E-01 1.850719327956E-01
C58 -1.986096832988E-01 1.457581076684E-01 1.803284799872E-01
H59 2.590691177946E-01 3.515832674918E-01 2.143154904803E-01
H60 1.038722342063E-01 -3.874056330523E-01 1.590142666821E-01
H61 -3.451174261329E-01 -2.527891692886E-01 -2.069257488078E-01
H62 3.884232605949E-01 -1.026319049890E-01 -1.584911445959E-01
H63 1.308469082293E-01 -4.331723075613E-01 -2.906452531314E-02
C64 -6.771861025345E-02 3.464007676671E-01 -1.349209911787E-01
H65 -2.552394826692E-01 1.130074130142E-01 -2.341150877781E-01
H66 4.437607215800E-01 -1.175294231948E-01 2.464593688558E-02
C67 -3.459723529219E-01 6.835638224409E-02 1.354491004454E-01
H68 -1.220574073344E-01 2.439763850384E-01 2.391575907778E-01
H69 -1.026319049890E-01 3.884232605949E-01 -1.584911445959E-01
H70 -3.874056330523E-01 1.038722342063E-01 1.590142666821E-01
C71 4.708758265047E-01 -4.743059503532E-01 -4.997661019225E-01
C72 -4.115559473267E-01 -3.052189956783E-01 -4.504909616888E-01
C73 3.028610350116E-01 4.092963924196E-01 4.502788229709E-01
C74 -4.743059503532E-01 4.708758265047E-01 -4.997661019225E-01
C75 -2.343090410314E-01 -1.805651263945E-01 -4.123817807496E-01
C76 -4.750211327421E-01 -2.598657818219E-01 -4.268845251902E-01
C77 1.801741246442E-01 2.339053529290E-01 4.105237668897E-01
C78 2.581264797026E-01 4.734734413708E-01 4.265728441192E-01
C79 4.092963924196E-01 3.028610350116E-01 4.502788229709E-01
C80 -3.052189956783E-01 -4.115559473267E-01 -4.504909616888E-01
C81 -1.805651263945E-01 -2.343090410314E-01 -4.123817807496E-01
C82 -1.070494770537E-01 -3.253829129558E-03 -3.670562503959E-01
C83 -3.922507813058E-01 -1.073095731785E-01 -4.692587501043E-01
C84 3.951673544328E-01 -3.579653270775E-01 -3.530597367358E-01
C85 2.339053529290E-01 1.801741246442E-01 4.105237668897E-01
C86 5.132517860783E-03 1.089595650070E-01 3.634223403034E-01
C87 1.111601908880E-01 3.975539460716E-01 4.712665649639E-01
C88 3.518329681902E-01 -4.023363603355E-01 3.504155061955E-01
C89 4.734734413708E-01 2.581264797026E-01 4.265728441192E-01
C90 -2.598657818219E-01 -4.750211327421E-01 -4.268845251902E-01
C91 -3.253829129558E-03 -1.070494770537E-01 -3.670562503959E-01
H92 -1.474514941030E-01 3.684857161461E-02 -3.643617378312E-01
C93 6.179152187978E-02 1.146660088527E-01 -3.271016602262E-01
H94 -2.917774109220E-01 -3.018360758147E-02 4.732299365026E-01
C95 -4.365129314831E-01 -5.341009291409E-02 -4.381385553060E-01
H96 3.316170704982E-01 -4.750050010676E-01 -3.187955311785E-01
C97 3.474478507239E-01 -3.070095132302E-01 -3.227732691059E-01
C98 1.089595650070E-01 5.132517860783E-03 3.634223403034E-01
H99 -3.547014520364E-02 1.489253744658E-01 3.616265022799E-01
C100 -1.099262938409E-01 -5.703604496913E-02 3.209076637619E-01
H101 3.760773344733E-02 3.017695893769E-01 -4.692836894905E-01
C102 5.903853512114E-02 4.437348603444E-01 4.403759735939E-01
H103 4.654046473380E-01 -3.431563803330E-01 3.149280672044E-01
C104 3.013903167012E-01 -3.542418923316E-01 3.196715200128E-01
C105 3.975539460716E-01 1.111601908880E-01 4.712665649639E-01
C106 -4.023363603355E-01 3.518329681902E-01 3.504155061955E-01
C107 -1.073095731785E-01 -3.922507813058E-01 -4.692587501043E-01
C108 -3.579653270775E-01 3.951673544328E-01 -3.530597367358E-01
H109 3.684857161461E-02 -1.474514941030E-01 -3.643617378312E-01
C110 1.146660088527E-01 6.179152187978E-02 -3.271016602262E-01
H111 1.548825738671E-01 2.472108307114E-01 -2.930742511922E-01
H112 -3.691530917707E-01 6.682769243874E-02 -4.709354746869E-01
C113 4.322813897466E-01 -1.535992323329E-01 -3.650790088213E-01
H114 2.447605173308E-01 -3.869925869858E-01 -2.658849122219E-01
H115 1.489253744658E-01 -3.547014520364E-02 3.616265022799E-01
C116 -5.703604496913E-02 -1.099262938409E-01 3.209076637619E-01
H117 -2.409308822054E-01 -1.484167325082E-01 2.856845095197E-01
H118 -5.623927842003E-02 3.824705768052E-01 4.753540631144E-01
C119 1.540276470781E-01 -4.316436177559E-01 3.645508995546E-01
H120 3.779425926656E-01 -2.560236149616E-01 2.608424092222E-01
H121 3.017695893769E-01 3.760773344734E-02 -4.692836894905E-01
C122 4.437348603444E-01 5.903853512114E-02 4.403759735939E-01
H123 -3.431563803330E-01 4.654046473380E-01 3.149280672044E-01
C124 -3.542418923316E-01 3.013903167012E-01 3.196715200128E-01
H125 -3.018360758147E-02 -2.917774109220E-01 4.732299365026E-01
C126 -5.341009291409E-02 -4.365129314831E-01 -4.381385553060E-01
H127 -4.750050010676E-01 3.316170704982E-01 -3.187955311785E-01
C128 -3.070095132302E-01 3.474478507239E-01 -3.227732691059E-01
H129 2.472108307114E-01 1.548825738671E-01 -2.930742511922E-01
H130 3.973680950110E-01 -1.115767394051E-01 -3.415088554041E-01
H131 -1.484167325082E-01 -2.409308822054E-01 2.856845095197E-01
H132 1.125943669477E-01 -3.961277657937E-01 3.409857333179E-01
H133 3.824705768052E-01 -5.623927842003E-02 4.753540631144E-01
C134 -4.316436177559E-01 1.540276470781E-01 3.645508995546E-01
H135 -2.560236149616E-01 3.779425926656E-01 2.608424092222E-01
H136 6.682769243874E-02 -3.691530917707E-01 -4.709354746869E-01
C137 -1.535992323329E-01 4.322813897466E-01 -3.650790088213E-01
H138 -3.869925869858E-01 2.447605173308E-01 -2.658849122219E-01
H139 -3.961277657937E-01 1.125943669477E-01 3.409857333179E-01
H140 -1.115767394051E-01 3.973680950110E-01 -3.415088554041E-01


#===END
