###############################################################
#
#primitive cell cif file
#
###############################################################

negm14_data

_symmetry_space_group_name_H-M 'P 1'
_cell_length_a      13.86596031
_cell_length_b      13.86596031
_cell_length_c      14.21100000
_cell_angle_alpha   90.000000
_cell_angle_beta    90.000000
_cell_angle_gamma   150.032293

loop_
_atom_site_label
_atom_site_fract_x
_atom_site_fract_y
_atom_site_fract_z
C1 2.696206623071E-02 -2.785615691132E-02 5.481902708254E-03
C2 -9.067095734542E-02 -1.970520844964E-01 5.467090798121E-02
C3 1.948678848137E-01 8.847670290824E-02 -4.455930735902E-02
C4 -2.785615691132E-02 2.696206623071E-02 5.481902708254E-03
C5 -2.683824768451E-01 -3.221274550531E-01 9.218597292984E-02
C6 -2.631946003241E-02 -2.415259462317E-01 7.830838060200E-02
C7 3.171332939082E-01 2.634031291945E-01 -8.490847943086E-02
C8 2.404817922438E-01 2.518596585468E-02 -6.823425008859E-02
C9 8.847670290824E-02 1.948678848137E-01 -4.455930735902E-02
C10 -1.970520844964E-01 -9.067095734542E-02 5.467090798121E-02
C11 -3.221274550531E-01 -2.683824768451E-01 9.218597292984E-02
C12 -3.963545355847E-01 4.998641965897E-01 1.367493049703E-01
C13 -1.055137813871E-01 -3.913343185000E-01 3.498149281092E-02
C14 1.032857876469E-01 -1.432312716483E-01 1.523102666547E-01
C15 2.634031291945E-01 3.171332939082E-01 -8.490847943086E-02
C16 4.914778495993E-01 3.876364223546E-01 -1.327721043304E-01
C17 3.901959174336E-01 1.046814912356E-01 -2.449319212089E-02
C18 1.469704330840E-01 -9.921049758474E-02 -1.442144904140E-01
C19 2.518596585468E-02 2.404817922438E-01 -6.823425008859E-02
C20 -2.415259462317E-01 -2.631946003241E-02 7.830838060200E-02
C21 4.998641965897E-01 -3.963545355847E-01 1.367493049703E-01
H22 -3.561847009538E-01 4.595139985494E-01 1.390056492174E-01
C23 4.343591735971E-01 3.814961709775E-01 1.762725232361E-01
H24 -2.057407209816E-01 -4.686537632588E-01 -2.274184123904E-02
C25 -5.704397959965E-02 -4.414776566997E-01 6.500178403047E-02
H26 1.648772927290E-01 -2.769437280767E-02 1.869334989055E-01
C27 1.543251654655E-01 -1.911203842103E-01 1.818598665369E-01
C28 3.876364223546E-01 4.914778495993E-01 -1.327721043304E-01
H29 -4.681672846324E-01 3.474384304773E-01 -1.350061106715E-01
C30 -3.939115263289E-01 -4.468132595540E-01 -1.757181527759E-01
H31 4.635548957124E-01 2.007122787194E-01 3.474453276786E-02
C32 4.460737152651E-01 6.270822857282E-02 -5.648368706966E-02
H33 3.189597878674E-02 -1.603492564397E-01 -1.793429027116E-01
C34 2.004797858584E-01 -1.439850914790E-01 -1.756953443444E-01
C35 1.046814912356E-01 3.901959174336E-01 -2.449319212089E-02
C36 -9.921049758474E-02 1.469704330840E-01 -1.442144904140E-01
C37 -3.913343185000E-01 -1.055137813871E-01 3.498149281092E-02
C38 -1.432312716483E-01 1.032857876469E-01 1.523102666547E-01
H39 4.595139985494E-01 -3.561847009538E-01 1.390056492174E-01
C40 3.814961709775E-01 4.343591735971E-01 1.762725232361E-01
H41 3.403783679981E-01 2.480875995316E-01 2.094865346895E-01
H42 -1.208695918715E-01 4.410280244947E-01 3.114696330941E-02
C43 7.390511150955E-02 -3.410596516560E-01 1.382700574335E-01
H44 2.570547639736E-01 -1.106736593284E-01 2.388072309239E-01
H45 3.474384304773E-01 -4.681672846324E-01 -1.350061106715E-01
C46 -4.468132595540E-01 -3.939115263289E-01 -1.757181527759E-01
H47 -2.637706875516E-01 -3.563223256266E-01 -2.117547045986E-01
H48 -4.359050046466E-01 1.275067395526E-01 -2.256349888931E-02
C49 3.513134689330E-01 -6.216988098798E-02 -1.321000341906E-01
H50 1.243911610202E-01 -2.421611037340E-01 -2.344654476320E-01
H51 2.007122787194E-01 4.635548957124E-01 3.474453276786E-02
C52 6.270822857282E-02 4.460737152651E-01 -5.648368706966E-02
H53 -1.603492564397E-01 3.189597878674E-02 -1.793429027116E-01
C54 -1.439850914790E-01 2.004797858584E-01 -1.756953443444E-01
H55 -4.686537632588E-01 -2.057407209816E-01 -2.274184123904E-02
C56 -4.414776566997E-01 -5.704397959965E-02 6.500178403047E-02
H57 -2.769437280767E-02 1.648772927290E-01 1.869334989055E-01
C58 -1.911203842103E-01 1.543251654655E-01 1.818598665369E-01
H59 2.480875995316E-01 3.403783679981E-01 2.094865346895E-01
H60 1.118820493594E-01 -3.803456720949E-01 1.609369124881E-01
H61 -3.563223256266E-01 -2.637706875516E-01 -2.117547045986E-01
H62 3.954832215523E-01 -9.462208983597E-02 -1.565684987900E-01
H63 1.275067395526E-01 -4.359050046466E-01 -2.256349888931E-02
C64 -6.216988098798E-02 3.513134689330E-01 -1.321000341906E-01
H65 -2.421611037340E-01 1.243911610202E-01 -2.344654476320E-01
H66 4.410280244947E-01 -1.208695918715E-01 3.114696330941E-02
C67 -3.410596516560E-01 7.390511150955E-02 1.382700574335E-01
H68 -1.106736593284E-01 2.570547639736E-01 2.388072309239E-01
H69 -9.462208983597E-02 3.954832215523E-01 -1.565684987900E-01
H70 -3.803456720949E-01 1.118820493594E-01 1.609369124881E-01
C71 4.721438430887E-01 -4.730379337693E-01 4.945180972917E-01
C72 -4.115232970918E-01 -3.051321151863E-01 -4.554406926410E-01
C73 3.029479155036E-01 4.093290426546E-01 4.453290920188E-01
C74 -4.730379337693E-01 4.721438430887E-01 4.945180972917E-01
C75 -2.365968708055E-01 -1.828667060918E-01 -4.150915205691E-01
C76 -4.748140341453E-01 -2.595182077562E-01 -4.317657499114E-01
C77 1.778725449469E-01 2.316175231549E-01 4.078140270702E-01
C78 2.584740537683E-01 4.736805399676E-01 4.216916193980E-01
C79 4.093290426546E-01 3.029479155036E-01 4.453290920188E-01
C80 -3.051321151863E-01 -4.115232970918E-01 -4.554406926410E-01
C81 -1.828667060918E-01 -2.365968708055E-01 -4.150915205691E-01
C82 -1.123635776454E-01 -8.522150400668E-03 -3.672278956696E-01
C83 -3.953185087644E-01 -1.098040825664E-01 -4.755068078791E-01
C84 4.007895024153E-01 -3.530295669160E-01 -3.557855095860E-01
C85 2.316175231549E-01 1.778725449469E-01 4.078140270702E-01
C86 -1.358034103269E-04 1.036454644153E-01 3.632506950297E-01
C87 1.086656815000E-01 3.944862186129E-01 4.650185071891E-01
C88 3.567687283517E-01 -3.967142123531E-01 3.476897333453E-01
C89 4.736805399676E-01 2.584740537683E-01 4.216916193980E-01
C90 -2.595182077562E-01 -4.748140341453E-01 -4.317657499114E-01
C91 -8.522150400668E-03 -1.123635776454E-01 -3.672278956696E-01
H92 -1.525615695227E-01 3.183271536764E-02 -3.649938893285E-01
C93 5.318674044601E-02 1.060884736711E-01 -3.242818472241E-01
H94 -2.992877212806E-01 -3.644510428763E-02 4.652554672321E-01
C95 -4.372917714272E-01 -5.392628473488E-02 -4.435163129303E-01
H96 3.396507435603E-01 -4.681040212133E-01 -3.206570972884E-01
C97 3.560149085210E-01 -2.995202141416E-01 -3.243046556556E-01
C98 1.036454644153E-01 -1.358034103267E-04 3.632506950297E-01
H99 -4.048600145062E-02 1.438152990462E-01 3.609943507826E-01
C100 -1.185038290225E-01 -6.564082640290E-02 3.237274767639E-01
H101 3.134623674118E-02 2.942592790184E-01 -4.772581587610E-01
C102 5.852234330035E-02 4.429560204004E-01 4.349982159695E-01
H103 4.723056271923E-01 -3.351227072710E-01 3.130665010945E-01
C104 3.088796157897E-01 -3.456748345345E-01 3.181401334631E-01
C105 3.944862186129E-01 1.086656815000E-01 4.650185071891E-01
C106 -3.967142123531E-01 3.567687283517E-01 3.476897333453E-01
C107 -1.098040825664E-01 -3.953185087644E-01 -4.755068078791E-01
C108 -3.530295669160E-01 4.007895024153E-01 -3.557855095860E-01
H109 3.183271536764E-02 -1.525615695227E-01 -3.649938893285E-01
C110 1.060884736711E-01 5.318674044601E-02 -3.242818472241E-01
H111 1.436776743734E-01 2.362293124484E-01 -2.882452954014E-01
H112 -3.724932604474E-01 6.409499535344E-02 -4.774365011107E-01
C113 4.378301190120E-01 -1.486865310670E-01 -3.678999658094E-01
H114 2.578388962660E-01 -3.756088389798E-01 -2.655345523680E-01
H115 1.438152990462E-01 -4.048600145062E-02 3.609943507826E-01
C116 -6.564082640290E-02 -1.185038290225E-01 3.237274767639E-01
H117 -2.519124004684E-01 -1.596216320019E-01 2.905134653105E-01
H118 -5.897197550533E-02 3.791304081285E-01 4.688530366906E-01
C119 1.589403483440E-01 -4.260948884904E-01 3.617299425665E-01
H120 3.893263406716E-01 -2.429452360264E-01 2.611927690761E-01
H121 2.942592790184E-01 3.134623674118E-02 -4.772581587610E-01
C122 4.429560204004E-01 5.852234330035E-02 4.349982159695E-01
H123 -3.351227072710E-01 4.723056271923E-01 3.130665010945E-01
C124 -3.456748345345E-01 3.088796157897E-01 3.181401334631E-01
H125 -3.644510428763E-02 -2.992877212806E-01 4.652554672321E-01
C126 -5.392628473488E-02 -4.372917714272E-01 -4.435163129303E-01
H127 -4.681040212133E-01 3.396507435603E-01 -3.206570972884E-01
C128 -2.995202141416E-01 3.560149085210E-01 -3.243046556556E-01
H129 2.362293124484E-01 1.436776743734E-01 -2.882452954014E-01
H130 4.053779101640E-01 -1.045167784477E-01 -3.434315012100E-01
H131 -1.596216320019E-01 -2.519124004684E-01 2.905134653105E-01
H132 1.196543279051E-01 -3.881179506406E-01 3.390630875119E-01
H133 3.791304081285E-01 -5.897197550533E-02 4.688530366906E-01
C134 -4.260948884904E-01 1.589403483440E-01 3.617299425665E-01
H135 -2.429452360264E-01 3.893263406716E-01 2.611927690761E-01
H136 6.409499535344E-02 -3.724932604474E-01 -4.774365011107E-01
C137 -1.486865310670E-01 4.378301190120E-01 -3.678999658094E-01
H138 -3.756088389798E-01 2.578388962660E-01 -2.655345523680E-01
H139 -3.881179506406E-01 1.196543279051E-01 3.390630875119E-01
H140 -1.045167784477E-01 4.053779101640E-01 -3.434315012100E-01


#===END
