###############################################################
#
#primitive cell cif file
#
###############################################################

negm31_data

_symmetry_space_group_name_H-M 'P 1'
_cell_length_a      13.86596031
_cell_length_b      13.86596031
_cell_length_c      14.21100000
_cell_angle_alpha   90.000000
_cell_angle_beta    90.000000
_cell_angle_gamma   150.032293

loop_
_atom_site_label
_atom_site_fract_x
_atom_site_fract_y
_atom_site_fract_z
C1 2.630588978999E-02 -2.851233335205E-02 -1.071650311660E-03
C2 -9.170614491199E-02 -1.981052609491E-01 4.765799001210E-02
C3 1.938147083610E-01 8.744151534168E-02 -5.157222532813E-02
C4 -2.630588978999E-02 2.851233335205E-02 1.071650311660E-03
C5 -2.670590947224E-01 -3.207964244249E-01 8.745565117149E-02
C6 -2.725684458786E-02 -2.424013564950E-01 7.134719166456E-02
C7 3.184643245363E-01 2.647265113172E-01 -8.963880118922E-02
C8 2.396063819806E-01 2.424858129923E-02 -7.519543902604E-02
C9 9.170614491199E-02 1.981052609491E-01 -4.765799001210E-02
C10 -1.938147083610E-01 -8.744151534168E-02 5.157222532813E-02
C11 -3.184643245363E-01 -2.647265113172E-01 8.963880118922E-02
C12 -3.941322808078E-01 -4.981923281264E-01 1.325140366339E-01
C13 -1.037158096689E-01 -3.904372410399E-01 2.803873394546E-02
C14 9.857369532372E-02 -1.459863608300E-01 1.470649890590E-01
C15 2.670590947224E-01 3.207964244249E-01 -8.745565117149E-02
C16 4.934213248833E-01 3.898586771315E-01 -1.370073726668E-01
C17 3.910929948937E-01 1.064794629538E-01 -3.143595098635E-02
C18 1.442153439023E-01 -1.039225899079E-01 -1.494597680098E-01
C19 2.725684458786E-02 2.424013564950E-01 -7.134719166456E-02
C20 -2.396063819806E-01 -2.424858129923E-02 7.519543902604E-02
C21 -4.934213248833E-01 -3.898586771315E-01 1.370073726668E-01
H22 -3.552927570742E-01 4.600429230873E-01 1.331547785762E-01
C23 4.395155292801E-01 3.862353508033E-01 1.747896244238E-01
H24 -2.009776888452E-01 -4.662422202304E-01 -3.098165606228E-02
C25 -5.661266942249E-02 -4.412124606249E-01 6.014923629203E-02
H26 1.568572453539E-01 -3.257304664566E-02 1.818857203442E-01
C27 1.486997581458E-01 -1.940844141439E-01 1.785016022351E-01
C28 3.941322808078E-01 4.981923281264E-01 -1.325140366339E-01
H29 -4.676383600944E-01 3.483303743569E-01 -1.408569813127E-01
C30 -3.891723465031E-01 -4.416569038710E-01 -1.772010515881E-01
H31 4.659664387408E-01 2.054753108559E-01 2.650471794462E-02
C32 4.463389113398E-01 6.313953874997E-02 -6.133623480811E-02
H33 2.701730494874E-02 -1.683693038149E-01 -1.843906812729E-01
C34 1.975157559248E-01 -1.496104987987E-01 -1.790536086462E-01
C35 1.037158096689E-01 3.904372410399E-01 -2.803873394546E-02
C36 -9.857369532372E-02 1.459863608300E-01 -1.470649890590E-01
C37 -3.910929948937E-01 -1.064794629538E-01 3.143595098635E-02
C38 -1.442153439023E-01 1.039225899079E-01 1.494597680098E-01
H39 4.676383600944E-01 -3.483303743569E-01 1.408569813127E-01
C40 3.891723465031E-01 4.416569038710E-01 1.772010515881E-01
H41 3.464221334052E-01 2.534689379585E-01 2.085249304960E-01
H42 -1.192223952330E-01 4.418026673217E-01 2.674502313264E-02
C43 7.050387290809E-02 -3.428286619497E-01 1.351740264539E-01
H44 2.482159862885E-01 -1.154783597003E-01 2.369223303122E-01
H45 3.552927570742E-01 -4.600429230873E-01 -1.331547785762E-01
C46 -4.395155292801E-01 -3.862353508033E-01 -1.747896244238E-01
H47 -2.583893491247E-01 -3.502785602195E-01 -2.127163087921E-01
H48 -4.351303618196E-01 1.291539361911E-01 -2.696543906608E-02
C49 3.495444586394E-01 -6.557111958945E-02 -1.351960651702E-01
H50 1.195864606483E-01 -2.509998814190E-01 -2.363503482438E-01
H51 2.009776888452E-01 4.662422202304E-01 3.098165606228E-02
C52 5.661266942249E-02 4.412124606249E-01 -6.014923629203E-02
H53 -1.568572453539E-01 3.257304664566E-02 -1.818857203442E-01
C54 -1.486997581458E-01 1.940844141439E-01 -1.785016022351E-01
H55 -4.659664387408E-01 -2.054753108559E-01 -2.650471794462E-02
C56 -4.463389113398E-01 -6.313953874997E-02 6.133623480811E-02
H57 -2.701730494874E-02 1.683693038149E-01 1.843906812729E-01
C58 -1.975157559248E-01 1.496104987987E-01 1.790536086462E-01
H59 2.583893491247E-01 3.502785602195E-01 2.127163087921E-01
H60 1.071524396083E-01 -3.828760287187E-01 1.594707190773E-01
H61 -3.464221334052E-01 -2.534689379585E-01 -2.085249304960E-01
H62 3.929528649285E-01 -9.935169958708E-02 -1.580346922008E-01
H63 1.192223952330E-01 -4.418026673217E-01 -2.674502313264E-02
C64 -7.050387290809E-02 3.428286619497E-01 -1.351740264539E-01
H65 -2.482159862885E-01 1.154783597003E-01 -2.369223303122E-01
H66 4.351303618196E-01 -1.291539361911E-01 2.696543906608E-02
C67 -3.495444586394E-01 6.557111958945E-02 1.351960651702E-01
H68 -1.195864606483E-01 2.509998814190E-01 2.363503482438E-01
H69 -1.071524396083E-01 3.828760287187E-01 -1.594707190773E-01
H70 -3.929528649285E-01 9.935169958708E-02 1.580346922008E-01
C71 4.736941102100E-01 -4.714876666480E-01 4.989283496883E-01
C72 -4.082938550880E-01 -3.018947390509E-01 -4.523420099879E-01
C73 3.061852916390E-01 4.125584846583E-01 4.484277746719E-01
C74 -4.736941102100E-01 4.714876666480E-01 -4.989283496883E-01
C75 -2.329409052776E-01 -1.792035755751E-01 -4.125443488285E-01
C76 -4.727431554121E-01 -2.575986435050E-01 -4.286528083354E-01
C77 1.815356754637E-01 2.352734886828E-01 4.103611988108E-01
C78 2.603936180194E-01 4.757514187008E-01 4.248045609740E-01
C79 4.082938550880E-01 3.018947390509E-01 4.523420099879E-01
C80 -3.061852916390E-01 -4.125584846583E-01 -4.484277746719E-01
C81 -1.815356754637E-01 -2.352734886828E-01 -4.103611988108E-01
C82 -1.058677191922E-01 -1.807671873615E-03 -3.674859633661E-01
C83 -3.962841903311E-01 -1.095627589601E-01 -4.719612660545E-01
C84 4.014263046763E-01 -3.540136391700E-01 -3.529350109410E-01
C85 2.329409052776E-01 1.792035755751E-01 4.125443488285E-01
C86 6.578675116726E-03 1.101413228685E-01 3.629926273332E-01
C87 1.089070051063E-01 3.935205370462E-01 4.685640490137E-01
C88 3.557846560977E-01 -3.960774100921E-01 3.505402319902E-01
C89 4.727431554121E-01 2.575986435050E-01 4.286528083354E-01
C90 -2.603936180194E-01 -4.757514187008E-01 -4.248045609740E-01
C91 -6.578675116726E-03 -1.101413228685E-01 -3.629926273332E-01
H92 -1.447072429258E-01 3.995707691270E-02 -3.668452214238E-01
C93 6.048447071992E-02 1.137646491967E-01 -3.252103755762E-01
H94 -2.990223111548E-01 -3.375777976957E-02 4.690183439377E-01
C95 -4.433873305775E-01 -5.878753937507E-02 -4.398507637080E-01
H96 3.431427546461E-01 -4.674269533543E-01 -3.181142796558E-01
C97 3.513002418542E-01 -3.059155858561E-01 -3.214983977649E-01
C98 1.058677191922E-01 1.807671873615E-03 3.674859633661E-01
H99 -3.236163990555E-02 1.516696256431E-01 3.591430186873E-01
C100 -1.108276534969E-01 -5.834309612900E-02 3.227989484119E-01
H101 3.403356125923E-02 2.945246891441E-01 -4.734952820554E-01
C102 5.366108866016E-02 4.368604612500E-01 4.386637651919E-01
H103 4.729826950513E-01 -3.316306961851E-01 3.156093187271E-01
C104 3.024842440752E-01 -3.503895012013E-01 3.209463913538E-01
C105 3.962841903311E-01 1.095627589601E-01 4.719612660545E-01
C106 -4.014263046763E-01 3.540136391700E-01 3.529350109410E-01
C107 -1.089070051063E-01 -3.935205370462E-01 -4.685640490137E-01
C108 -3.557846560977E-01 3.960774100921E-01 -3.505402319902E-01
H109 3.236163990555E-02 -1.516696256431E-01 -3.591430186873E-01
C110 1.108276534969E-01 5.834309612900E-02 -3.227989484119E-01
H111 1.535778665948E-01 2.465310620415E-01 -2.914750695040E-01
H112 -3.807776047670E-01 5.819733267833E-02 -4.732549768674E-01
C113 4.294961270919E-01 -1.571713380503E-01 -3.648259735461E-01
H114 2.517840137115E-01 -3.845216402997E-01 -2.630776696878E-01
H115 1.447072429258E-01 -3.995707691270E-02 3.668452214238E-01
C116 -6.048447071992E-02 -1.137646491967E-01 3.252103755762E-01
H117 -2.416106508753E-01 -1.497214397805E-01 2.872836912079E-01
H118 -6.486963818044E-02 3.708460638089E-01 4.730345609339E-01
C119 1.504555413606E-01 -4.344288804106E-01 3.648039348298E-01
H120 3.804135393517E-01 -2.490001185810E-01 2.636496517562E-01
H121 2.990223111548E-01 3.375777976957E-02 -4.690183439377E-01
C122 4.433873305775E-01 5.878753937507E-02 4.398507637080E-01
H123 -3.431427546461E-01 4.674269533543E-01 3.181142796558E-01
C124 -3.513002418542E-01 3.059155858561E-01 3.214983977649E-01
H125 -3.403356125923E-02 -2.945246891441E-01 4.734952820554E-01
C126 -5.366108866016E-02 -4.368604612500E-01 -4.386637651919E-01
H127 -4.729826950513E-01 3.316306961851E-01 -3.156093187271E-01
C128 -3.024842440752E-01 3.503895012013E-01 -3.209463913538E-01
H129 2.416106508753E-01 1.497214397805E-01 -2.872836912079E-01
H130 3.928475603917E-01 -1.171239712813E-01 -3.405292809227E-01
H131 -1.535778665948E-01 -2.465310620415E-01 2.914750695040E-01
H132 1.070471350715E-01 -4.006483004129E-01 3.419653077992E-01
H133 3.807776047670E-01 -5.819733267833E-02 4.732549768674E-01
C134 -4.294961270919E-01 1.571713380503E-01 3.648259735461E-01
H135 -2.517840137115E-01 3.845216402997E-01 2.630776696878E-01
H136 6.486963818044E-02 -3.708460638089E-01 -4.730345609339E-01
C137 -1.504555413606E-01 4.344288804106E-01 -3.648039348298E-01
H138 -3.804135393517E-01 2.490001185810E-01 -2.636496517562E-01
H139 -3.928475603917E-01 1.171239712813E-01 3.405292809227E-01
H140 -1.070471350715E-01 4.006483004129E-01 -3.419653077992E-01


#===END
