###############################################################
#
#primitive cell cif file
#
###############################################################

negm20_data

_symmetry_space_group_name_H-M 'P 1'
_cell_length_a      13.86596031
_cell_length_b      13.86596031
_cell_length_c      14.21100000
_cell_angle_alpha   90.000000
_cell_angle_beta    90.000000
_cell_angle_gamma   150.032293

loop_
_atom_site_label
_atom_site_fract_x
_atom_site_fract_y
_atom_site_fract_z
C1 2.740378576602E-02 -2.740378576602E-02 0.000000000000E+00
C2 -8.790550187516E-02 -1.942051100902E-01 5.092830122764E-02
C3 1.942051100902E-01 8.790550187516E-02 -5.092830122764E-02
C4 -2.740378576602E-02 2.740378576602E-02 0.000000000000E+00
C5 -2.625142254775E-01 -3.162178595587E-01 9.149787517198E-02
C6 -2.454464113248E-02 -2.398302814862E-01 7.397674980782E-02
C7 3.162178595587E-01 2.625142254775E-01 -9.149787517198E-02
C8 2.398302814862E-01 2.454464113248E-02 -7.397674980782E-02
C9 8.790550187516E-02 1.942051100902E-01 -5.092830122764E-02
C10 -1.942051100902E-01 -8.790550187516E-02 5.092830122764E-02
C11 -3.162178595587E-01 -2.625142254775E-01 9.149787517198E-02
C12 -3.870712319854E-01 -4.908955503298E-01 1.389819539793E-01
C13 -1.039661401957E-01 -3.890359152093E-01 2.941507075800E-02
C14 1.010729973119E-01 -1.459373875627E-01 1.493856731143E-01
C15 2.625142254775E-01 3.162178595587E-01 -9.149787517198E-02
C16 4.908955503298E-01 3.870712319854E-01 -1.389819539793E-01
C17 3.890359152093E-01 1.039661401957E-01 -2.941507075800E-02
C18 1.459373875627E-01 -1.010729973119E-01 -1.493856731143E-01
C19 2.454464113248E-02 2.398302814862E-01 -7.397674980782E-02
C20 -2.398302814862E-01 -2.454464113248E-02 7.397674980782E-02
C21 -4.908955503298E-01 -3.870712319854E-01 1.389819539793E-01
H22 -3.471754336741E-01 4.684551640722E-01 1.408451966064E-01
C23 4.471651314268E-01 3.942652149037E-01 1.817436920888E-01
H24 -2.015109073482E-01 -4.630266491829E-01 -2.918626492808E-02
C25 -5.965284882464E-02 -4.432023367890E-01 5.964229806959E-02
H26 1.619622848969E-01 -3.138759842240E-02 1.851334517268E-01
C27 1.480910577133E-01 -1.978283723197E-01 1.790865403599E-01
C28 3.870712319854E-01 4.908955503298E-01 -1.389819539793E-01
H29 -4.684551640722E-01 3.471754336741E-01 -1.408451966064E-01
C30 -3.942652149037E-01 -4.471651314268E-01 -1.817436920888E-01
H31 4.630266491829E-01 2.015109073482E-01 2.918626492808E-02
C32 4.432023367890E-01 5.965284882464E-02 -5.964229806959E-02
H33 3.138759842240E-02 -1.619622848969E-01 -1.851334517268E-01
C34 1.978283723197E-01 -1.480910577133E-01 -1.790865403599E-01
C35 1.039661401957E-01 3.890359152093E-01 -2.941507075800E-02
C36 -1.010729973119E-01 1.459373875627E-01 -1.493856731143E-01
C37 -3.890359152093E-01 -1.039661401957E-01 2.941507075800E-02
C38 -1.459373875627E-01 1.010729973119E-01 1.493856731143E-01
H39 4.684551640722E-01 -3.471754336741E-01 1.408451966064E-01
C40 3.942652149037E-01 4.471651314268E-01 1.817436920888E-01
H41 3.561856394739E-01 2.636038992405E-01 2.173308894174E-01
H42 -1.239441539896E-01 4.395158840484E-01 2.496883485673E-02
C43 6.722550983055E-02 -3.474233112506E-01 1.343507309568E-01
H44 2.476787048044E-01 -1.210735772075E-01 2.371906912822E-01
H45 3.471754336741E-01 -4.684551640722E-01 -1.408451966064E-01
C46 -4.471651314268E-01 -3.942652149037E-01 -1.817436920888E-01
H47 -2.636038992405E-01 -3.561856394739E-01 -2.173308894174E-01
H48 -4.395158840484E-01 1.239441539896E-01 -2.496883485673E-02
C49 3.474233112506E-01 -6.722550983055E-02 -1.343507309568E-01
H50 1.210735772075E-01 -2.476787048044E-01 -2.371906912822E-01
H51 2.015109073482E-01 4.630266491829E-01 2.918626492808E-02
C52 5.965284882464E-02 4.432023367890E-01 -5.964229806959E-02
H53 -1.619622848969E-01 3.138759842240E-02 -1.851334517268E-01
C54 -1.480910577133E-01 1.978283723197E-01 -1.790865403599E-01
H55 -4.630266491829E-01 -2.015109073482E-01 -2.918626492808E-02
C56 -4.432023367890E-01 -5.965284882464E-02 5.964229806959E-02
H57 -3.138759842240E-02 1.619622848969E-01 1.851334517268E-01
C58 -1.978283723197E-01 1.480910577133E-01 1.790865403599E-01
H59 2.636038992405E-01 3.561856394739E-01 2.173308894174E-01
H60 1.017508594110E-01 -3.900447288556E-01 1.573281126123E-01
H61 -3.561856394739E-01 -2.636038992405E-01 -2.173308894174E-01
H62 3.900447288556E-01 -1.017508594110E-01 -1.573281126123E-01
H63 1.239441539896E-01 -4.395158840484E-01 -2.496883485673E-02
C64 -6.722550983055E-02 3.474233112506E-01 -1.343507309568E-01
H65 -2.476787048044E-01 1.210735772075E-01 -2.371906912822E-01
H66 4.395158840484E-01 -1.239441539896E-01 2.496883485673E-02
C67 -3.474233112506E-01 6.722550983055E-02 1.343507309568E-01
H68 -1.210735772075E-01 2.476787048044E-01 2.371906912822E-01
H69 -1.017508594110E-01 3.900447288556E-01 -1.573281126123E-01
H70 -3.900447288556E-01 1.017508594110E-01 1.573281126123E-01
C71 4.725855626240E-01 -4.725855626240E-01 -5.000000000000E-01
C72 -4.087578416215E-01 -3.022851407802E-01 -4.516980858874E-01
C73 3.022851407802E-01 4.087578416215E-01 4.516980858874E-01
C74 -4.725855626240E-01 4.725855626240E-01 -5.000000000000E-01
C75 -2.307286194379E-01 -1.769571105975E-01 -4.144034228113E-01
C76 -4.730392152454E-01 -2.578225430107E-01 -4.274341191172E-01
C77 1.769571105975E-01 2.307286194379E-01 4.144034228113E-01
C78 2.578225430107E-01 4.730392152454E-01 4.274341191172E-01
C79 4.087578416215E-01 3.022851407802E-01 4.516980858874E-01
C80 -3.022851407802E-01 -4.087578416215E-01 -4.516980858874E-01
C81 -1.769571105975E-01 -2.307286194379E-01 -4.144034228113E-01
C82 -1.030802740461E-01 7.181026798234E-04 -3.694605446786E-01
C83 -3.937708675731E-01 -1.075056792757E-01 -4.699403858262E-01
C84 3.985767120803E-01 -3.557356828304E-01 -3.528609160455E-01
C85 2.307286194379E-01 1.769571105975E-01 4.144034228113E-01
C86 -7.181026798233E-04 1.030802740461E-01 3.694605446786E-01
C87 1.075056792757E-01 3.937708675731E-01 4.699403858262E-01
C88 3.557356828304E-01 -3.985767120803E-01 3.528609160455E-01
C89 4.730392152454E-01 2.578225430107E-01 4.274341191172E-01
C90 -2.578225430107E-01 -4.730392152454E-01 -4.274341191172E-01
C91 7.181026798234E-04 -1.030802740461E-01 -3.694605446786E-01
H92 -1.435523022430E-01 4.077388089044E-02 -3.668334367175E-01
C93 6.599269827571E-02 1.188575175974E-01 -3.297530160768E-01
H94 -2.950579076472E-01 -3.081799021167E-02 4.716998909212E-01
C95 -4.399006406522E-01 -5.565096482426E-02 -4.381568269695E-01
H96 3.367357357281E-01 -4.717972468280E-01 -3.188570501098E-01
C97 3.497808007688E-01 -3.062282022511E-01 -3.215313294786E-01
C98 1.030802740461E-01 -7.181026798233E-04 3.694605446786E-01
H99 -4.077388089043E-02 1.435523022430E-01 3.668334367175E-01
C100 -1.188575175974E-01 -6.599269827571E-02 3.297530160768E-01
H101 3.081799021167E-02 2.950579076472E-01 -4.716998909212E-01
C102 5.565096482426E-02 4.399006406522E-01 4.381568269695E-01
H103 4.717972468280E-01 -3.367357357281E-01 3.188570501098E-01
C104 3.062282022511E-01 -3.497808007688E-01 3.215313294786E-01
C105 3.937708675731E-01 1.075056792757E-01 4.699403858262E-01
C106 -3.985767120803E-01 3.557356828304E-01 3.528609160455E-01
C107 -1.075056792757E-01 -3.937708675731E-01 -4.699403858262E-01
C108 -3.557356828304E-01 3.985767120803E-01 -3.528609160455E-01
H109 4.077388089044E-02 -1.435523022430E-01 -3.668334367175E-01
C110 1.188575175974E-01 6.599269827571E-02 -3.297530160768E-01
H111 1.594849458492E-01 2.517456121572E-01 -2.960896501294E-01
H112 -3.755678225655E-01 6.258285490720E-02 -4.712583726580E-01
C113 4.311505173330E-01 -1.550501906616E-01 -3.639806393327E-01
H114 2.484628370968E-01 -3.860087568589E-01 -2.639180127263E-01
H115 1.435523022430E-01 -4.077388089044E-02 3.668334367175E-01
C116 -6.599269827571E-02 -1.188575175974E-01 3.297530160768E-01
H117 -2.517456121572E-01 -1.594849458492E-01 2.960896501294E-01
H118 -6.258285490720E-02 3.755678225655E-01 4.712583726580E-01
C119 1.550501906616E-01 -4.311505173330E-01 3.639806393327E-01
H120 3.860087568589E-01 -2.484628370968E-01 2.639180127263E-01
H121 2.950579076472E-01 3.081799021167E-02 -4.716998909212E-01
C122 4.399006406522E-01 5.565096482426E-02 4.381568269695E-01
H123 -3.367357357281E-01 4.717972468280E-01 3.188570501098E-01
C124 -3.497808007688E-01 3.062282022511E-01 3.215313294786E-01
H125 -3.081799021167E-02 -2.950579076472E-01 4.716998909212E-01
C126 -5.565096482426E-02 -4.399006406522E-01 -4.381568269695E-01
H127 -4.717972468280E-01 3.367357357281E-01 -3.188570501098E-01
C128 -3.062282022511E-01 3.497808007688E-01 -3.215313294786E-01
H129 2.517456121572E-01 1.594849458492E-01 -2.960896501294E-01
H130 3.952467202156E-01 -1.142158352084E-01 -3.398227013342E-01
H131 -1.594849458492E-01 -2.517456121572E-01 2.960896501294E-01
H132 1.142158352084E-01 -3.952467202156E-01 3.398227013342E-01
H133 3.755678225655E-01 -6.258285490720E-02 4.712583726580E-01
C134 -4.311505173330E-01 1.550501906616E-01 3.639806393327E-01
H135 -2.484628370968E-01 3.860087568589E-01 2.639180127263E-01
H136 6.258285490720E-02 -3.755678225655E-01 -4.712583726580E-01
C137 -1.550501906616E-01 4.311505173330E-01 -3.639806393327E-01
H138 -3.860087568589E-01 2.484628370968E-01 -2.639180127263E-01
H139 -3.952467202156E-01 1.142158352084E-01 3.398227013342E-01
H140 -1.142158352084E-01 3.952467202156E-01 -3.398227013342E-01


#===END
