###############################################################
#
#primitive cell cif file
#
###############################################################

negm25_data

_symmetry_space_group_name_H-M 'P 1'
_cell_length_a      13.86596031
_cell_length_b      13.86596031
_cell_length_c      14.21100000
_cell_angle_alpha   90.000000
_cell_angle_beta    90.000000
_cell_angle_gamma   150.032293

loop_
_atom_site_label
_atom_site_fract_x
_atom_site_fract_y
_atom_site_fract_z
C1 2.836468773922E-02 -2.645353540282E-02 5.189244501443E-04
C2 -8.749081751330E-02 -1.942673768371E-01 5.058456972824E-02
C3 1.976525924730E-01 9.165684274037E-02 -4.864564561199E-02
C4 -2.836468773922E-02 2.645353540282E-02 -5.189244501443E-04
C5 -2.644935846759E-01 -3.189468997860E-01 8.911465791000E-02
C6 -2.477300424716E-02 -2.405255906251E-01 7.447224502611E-02
C7 3.203138491752E-01 2.672920213637E-01 -8.797979445071E-02
C8 2.414821478505E-01 2.673242163992E-02 -7.207038566449E-02
C9 8.749081751330E-02 1.942673768371E-01 -5.058456972824E-02
C10 -1.976525924730E-01 -9.165684274037E-02 4.864564561199E-02
C11 -3.203138491752E-01 -2.672920213637E-01 8.797979445071E-02
C12 -3.894894883761E-01 -4.943162223059E-01 1.359040654081E-01
C13 -1.045609066109E-01 -3.900415242962E-01 2.992053655900E-02
C14 9.822424772517E-02 -1.492812690298E-01 1.508718970251E-01
C15 2.644935846759E-01 3.189468997860E-01 -8.911465791000E-02
C16 4.972974307037E-01 3.945014695632E-01 -1.336173438925E-01
C17 3.914887116374E-01 1.056343660117E-01 -2.955414837281E-02
C18 1.409204357025E-01 -1.042720375065E-01 -1.456528600437E-01
C19 2.477300424716E-02 2.405255906251E-01 -7.447224502611E-02
C20 -2.414821478505E-01 -2.673242163992E-02 7.207038566449E-02
C21 -4.972974307037E-01 -3.945014695632E-01 1.336173438925E-01
H22 -3.480057066885E-01 4.666682053978E-01 1.390055301090E-01
C23 4.422710289909E-01 3.880778434506E-01 1.765929830946E-01
H24 -1.997440129467E-01 -4.618812139353E-01 -2.958340031286E-02
C25 -6.401273980598E-02 -4.475378135240E-01 6.124019161509E-02
H26 1.601066833822E-01 -3.413899485168E-02 1.865881094037E-01
C27 1.413542043410E-01 -2.046531161045E-01 1.818499231813E-01
C28 3.894894883761E-01 4.943162223059E-01 -1.359040654081E-01
H29 -4.610130777839E-01 3.556174247426E-01 -1.350062297800E-01
C30 -3.873298538558E-01 -4.389014041601E-01 -1.753976929173E-01
H31 4.703274450359E-01 2.067089867543E-01 2.790297369404E-02
C32 4.400135584408E-01 5.573946836648E-02 -6.024527948505E-02
H33 2.545135674273E-02 -1.651198657865E-01 -1.796882922134E-01
C34 1.869470539641E-01 -1.569560526035E-01 -1.757052877000E-01
C35 1.045609066109E-01 3.900415242962E-01 -2.992053655900E-02
C36 -9.822424772517E-02 1.492812690298E-01 -1.508718970251E-01
C37 -3.914887116374E-01 -1.056343660117E-01 2.955414837281E-02
C38 -1.409204357025E-01 1.042720375065E-01 1.456528600437E-01
H39 4.610130777839E-01 -3.556174247426E-01 1.350062297800E-01
C40 3.873298538558E-01 4.389014041601E-01 1.753976929173E-01
H41 3.509181374043E-01 2.569397714464E-01 2.116274877578E-01
H42 -1.283038732568E-01 4.352951600588E-01 2.634376787517E-02
C43 5.959516339325E-02 -3.548398267564E-01 1.372398065533E-01
H44 2.391905289729E-01 -1.295810268876E-01 2.406895941196E-01
H45 3.480057066885E-01 -4.666682053978E-01 -1.390055301090E-01
C46 -4.422710289909E-01 -3.880778434506E-01 -1.765929830946E-01
H47 -2.549185156368E-01 -3.457825562204E-01 -2.096137515302E-01
H48 -4.416378690824E-01 1.200724581672E-01 -2.736669432355E-02
C49 3.375332938326E-01 -7.647982910428E-02 -1.331302850708E-01
H50 1.054837934610E-01 -2.600253387347E-01 -2.325830844364E-01
H51 1.997440129467E-01 4.618812139353E-01 2.958340031286E-02
C52 6.401273980598E-02 4.475378135240E-01 -6.124019161509E-02
H53 -1.601066833822E-01 3.413899485168E-02 -1.865881094037E-01
C54 -1.413542043410E-01 2.046531161045E-01 -1.818499231813E-01
H55 -4.703274450359E-01 -2.067089867543E-01 -2.790297369404E-02
C56 -4.400135584408E-01 -5.573946836648E-02 6.024527948505E-02
H57 -2.545135674273E-02 1.651198657865E-01 1.796882922134E-01
C58 -1.869470539641E-01 1.569560526035E-01 1.757052877000E-01
H59 2.549185156368E-01 3.457825562204E-01 2.096137515302E-01
H60 9.134827256330E-02 -3.999202878074E-01 1.609871634345E-01
H61 -3.509181374043E-01 -2.569397714464E-01 -2.116274877578E-01
H62 3.759086058399E-01 -1.151558666320E-01 -1.565182478436E-01
H63 1.283038732568E-01 -4.352951600588E-01 -2.634376787517E-02
C64 -5.959516339325E-02 3.548398267564E-01 -1.372398065533E-01
H65 -2.391905289729E-01 1.295810268876E-01 -2.406895941196E-01
H66 4.416378690824E-01 -1.200724581672E-01 2.736669432355E-02
C67 -3.375332938326E-01 7.647982910428E-02 1.331302850708E-01
H68 -1.054837934610E-01 2.600253387347E-01 2.325830844364E-01
H69 -9.134827256330E-02 3.999202878074E-01 -1.609871634345E-01
H70 -3.759086058399E-01 1.151558666320E-01 1.565182478436E-01
C71 4.735464645972E-01 -4.716353122608E-01 4.994810755499E-01
C72 -4.083431572596E-01 -3.023474075270E-01 -4.513543543880E-01
C73 3.057326231629E-01 4.125091824867E-01 4.494154302718E-01
C74 -4.735464645972E-01 4.716353122608E-01 -4.994810755499E-01
C75 -2.327079786363E-01 -1.796861508248E-01 -4.120202055493E-01
C76 -4.732675783601E-01 -2.585178521495E-01 -4.279296143355E-01
C77 1.810531002140E-01 2.355064153241E-01 4.108853420900E-01
C78 2.594744093749E-01 4.752269957528E-01 4.255277549739E-01
C79 4.083431572596E-01 3.023474075270E-01 4.513543543880E-01
C80 -3.057326231629E-01 -4.125091824867E-01 -4.494154302718E-01
C81 -1.810531002140E-01 -2.355064153241E-01 -4.108853420900E-01
C82 -1.054985304368E-01 -2.702569296256E-03 -3.663826561075E-01
C83 -3.943656339883E-01 -1.085112883626E-01 -4.704458516272E-01
C84 3.957279624935E-01 -3.590795642975E-01 -3.543471399563E-01
C85 2.327079786363E-01 1.796861508248E-01 4.120202055493E-01
C86 5.683777694085E-03 1.105105116239E-01 3.640959345919E-01
C87 1.099584757038E-01 3.954390933891E-01 4.700794634410E-01
C88 3.507187309702E-01 -4.017757522748E-01 3.491281029749E-01
C89 4.732675783601E-01 2.585178521495E-01 4.279296143355E-01
C90 -2.594744093749E-01 -4.752269957528E-01 -4.255277549739E-01
C91 -5.683777694085E-03 -1.105105116239E-01 -3.640959345919E-01
H92 -1.443825752574E-01 3.898692221608E-02 -3.649937702200E-01
C93 6.109859583986E-02 1.126701461442E-01 -3.246023070827E-01
H94 -2.932910132457E-01 -2.967255496408E-02 4.720970263060E-01
C95 -4.442605316335E-01 -5.998644155923E-02 -4.397547205150E-01
H96 3.348801342135E-01 -4.745486432573E-01 -3.203117077866E-01
C97 3.430439473965E-01 -3.130529460359E-01 -3.242947123000E-01
C98 1.054985304368E-01 2.702569296256E-03 3.663826561075E-01
H99 -3.333179460218E-02 1.519942933115E-01 3.609944698910E-01
C100 -1.119221565494E-01 -5.772897100905E-02 3.234070169054E-01
H101 3.811878606473E-02 3.002559870533E-01 -4.704165996871E-01
C102 5.246218647600E-02 4.359872601940E-01 4.387598083849E-01
H103 4.658610051483E-01 -3.398933166178E-01 3.134118905963E-01
C104 2.953468838955E-01 -3.586457956590E-01 3.181500768187E-01
C105 3.943656339883E-01 1.085112883626E-01 4.704458516272E-01
C106 -3.957279624935E-01 3.590795642975E-01 3.543471399563E-01
C107 -1.099584757038E-01 -3.954390933891E-01 -4.700794634410E-01
C108 -3.507187309702E-01 4.017757522748E-01 -3.491281029749E-01
H109 3.333179460218E-02 -1.519942933115E-01 -3.609944698910E-01
C110 1.119221565494E-01 5.772897100905E-02 -3.234070169054E-01
H111 1.542174437796E-01 2.450814843632E-01 -2.903862484698E-01
H112 -3.799275418328E-01 5.836213091755E-02 -4.726333056764E-01
C113 4.235201708957E-01 -1.624667061674E-01 -3.668697149292E-01
H114 2.399746612653E-01 -3.945162065390E-01 -2.674169155636E-01
H115 1.443825752574E-01 -3.898692221608E-02 3.649937702200E-01
C116 -6.109859583986E-02 -1.126701461442E-01 3.246023070827E-01
H117 -2.430602285536E-01 -1.490818625957E-01 2.883725122422E-01
H118 -6.470483994122E-02 3.716961267432E-01 4.736562321248E-01
C119 1.451601732436E-01 -4.404048366067E-01 3.627601934467E-01
H120 3.704189731124E-01 -2.608094710271E-01 2.593104058804E-01
H121 2.932910132457E-01 2.967255496408E-02 -4.720970263060E-01
C122 4.442605316335E-01 5.998644155923E-02 4.397547205150E-01
H123 -3.348801342135E-01 4.745486432573E-01 3.203117077866E-01
C124 -3.430439473965E-01 3.130529460359E-01 3.242947123000E-01
H125 -3.811878606473E-02 -3.002559870533E-01 4.704165996871E-01
C126 -5.246218647600E-02 -4.359872601940E-01 -4.387598083849E-01
H127 -4.658610051483E-01 3.398933166178E-01 -3.134118905963E-01
C128 -2.953468838955E-01 3.586457956590E-01 -3.181500768187E-01
H129 2.430602285536E-01 1.490818625957E-01 -2.883725122422E-01
H130 3.848441333679E-01 -1.240913941601E-01 -3.434817521564E-01
H131 -1.542174437796E-01 -2.450814843632E-01 2.903862484698E-01
H132 1.000797121926E-01 -4.086517274367E-01 3.390128365655E-01
H133 3.799275418328E-01 -5.836213091755E-02 4.726333056764E-01
C134 -4.235201708957E-01 1.624667061674E-01 3.668697149292E-01
H135 -2.399746612653E-01 3.945162065390E-01 2.674169155636E-01
H136 6.470483994122E-02 -3.716961267432E-01 -4.736562321248E-01
C137 -1.451601732436E-01 4.404048366067E-01 -3.627601934467E-01
H138 -3.704189731124E-01 2.608094710271E-01 -2.593104058804E-01
H139 -3.848441333679E-01 1.240913941601E-01 3.434817521564E-01
H140 -1.000797121926E-01 4.086517274367E-01 -3.390128365655E-01


#===END
