###############################################################
#
#primitive cell cif file
#
###############################################################

negm26_data

_symmetry_space_group_name_H-M 'P 1'
_cell_length_a      13.86596031
_cell_length_b      13.86596031
_cell_length_c      14.21100000
_cell_angle_alpha   90.000000
_cell_angle_beta    90.000000
_cell_angle_gamma   150.032293

loop_
_atom_site_label
_atom_site_fract_x
_atom_site_fract_y
_atom_site_fract_z
C1 2.740587187752E-02 -2.740587187752E-02 0.000000000000E+00
C2 -9.038595269771E-02 -1.967451347851E-01 4.898304608240E-02
C3 1.967451347851E-01 9.038595269771E-02 -4.898304608240E-02
C4 -2.740587187752E-02 2.740587187752E-02 0.000000000000E+00
C5 -2.666618079437E-01 -3.203942494920E-01 8.796165181613E-02
C6 -2.692094704848E-02 -2.420267894140E-01 7.318505694152E-02
C7 3.203942494920E-01 2.666618079437E-01 -8.796165181613E-02
C8 2.420267894140E-01 2.692094704848E-02 -7.318505694152E-02
C9 9.038595269771E-02 1.967451347851E-01 -4.898304608240E-02
C10 -1.967451347851E-01 -9.038595269771E-02 4.898304608240E-02
C11 -3.203942494920E-01 -2.666618079437E-01 8.796165181613E-02
C12 -3.922758452038E-01 -4.961082381197E-01 1.345771632675E-01
C13 -1.035935605612E-01 -3.899291758572E-01 2.930740815671E-02
C14 9.551330014873E-02 -1.492084173231E-01 1.501791706795E-01
C15 2.666618079437E-01 3.203942494920E-01 -8.796165181613E-02
C16 4.961082381197E-01 3.922758452038E-01 -1.345771632675E-01
C17 3.899291758572E-01 1.035935605612E-01 -2.930740815671E-02
C18 1.492084173231E-01 -9.551330014873E-02 -1.501791706795E-01
C19 2.692094704848E-02 2.420267894140E-01 -7.318505694152E-02
C20 -2.420267894140E-01 -2.692094704848E-02 7.318505694152E-02
C21 -4.961082381197E-01 -3.922758452038E-01 1.345771632675E-01
H22 -3.523026941707E-01 4.633204203049E-01 1.366569536563E-01
C23 4.412084075264E-01 3.883098461087E-01 1.766016154508E-01
H24 -1.983417496430E-01 -4.630513151907E-01 -3.064950278193E-02
C25 -6.075326725594E-02 -4.446315427848E-01 6.228467162205E-02
H26 1.547952744015E-01 -3.522100561466E-02 1.850644428530E-01
C27 1.408224094392E-01 -2.017488403616E-01 1.827545964907E-01
C28 3.922758452038E-01 4.961082381197E-01 -1.345771632675E-01
H29 -4.633204203049E-01 3.523026941707E-01 -1.366569536563E-01
C30 -3.883098461087E-01 -4.412084075264E-01 -1.766016154508E-01
H31 4.630513151907E-01 1.983417496430E-01 3.064950278193E-02
C32 4.446315427848E-01 6.075326725594E-02 -6.228467162205E-02
H33 3.522100561466E-02 -1.547952744015E-01 -1.850644428530E-01
C34 2.017488403616E-01 -1.408224094392E-01 -1.827545964907E-01
C35 1.035935605612E-01 3.899291758572E-01 -2.930740815671E-02
C36 -9.551330014873E-02 1.492084173231E-01 -1.501791706795E-01
C37 -3.899291758572E-01 -1.035935605612E-01 2.930740815671E-02
C38 -1.492084173231E-01 9.551330014873E-02 1.501791706795E-01
H39 4.633204203049E-01 -3.523026941707E-01 1.366569536563E-01
C40 3.883098461087E-01 4.412084075264E-01 1.766016154508E-01
H41 3.496918691368E-01 2.571560870836E-01 2.117057455307E-01
H42 -1.232386730050E-01 4.387665792443E-01 2.829015179840E-02
C43 6.196513573745E-02 -3.506775589553E-01 1.390224437628E-01
H44 2.378862953584E-01 -1.257128101885E-01 2.421687640863E-01
H45 3.523026941707E-01 -4.633204203049E-01 -1.366569536563E-01
C46 -4.412084075264E-01 -3.883098461087E-01 -1.766016154508E-01
H47 -2.571560870836E-01 -3.496918691368E-01 -2.117057455307E-01
H48 -4.387665792443E-01 1.232386730050E-01 -2.829015179840E-02
C49 3.506775589553E-01 -6.196513573745E-02 -1.390224437628E-01
H50 1.257128101885E-01 -2.378862953584E-01 -2.421687640863E-01
H51 1.983417496430E-01 4.630513151907E-01 3.064950278193E-02
C52 6.075326725594E-02 4.446315427848E-01 -6.228467162205E-02
H53 -1.547952744015E-01 3.522100561466E-02 -1.850644428530E-01
C54 -1.408224094392E-01 2.017488403616E-01 -1.827545964907E-01
H55 -4.630513151907E-01 -1.983417496430E-01 -3.064950278193E-02
C56 -4.446315427848E-01 -6.075326725594E-02 6.228467162205E-02
H57 -3.522100561466E-02 1.547952744015E-01 1.850644428530E-01
C58 -2.017488403616E-01 1.408224094392E-01 1.827545964907E-01
H59 2.571560870836E-01 3.496918691368E-01 2.117057455307E-01
H60 9.503458566810E-02 -3.939836366726E-01 1.641527921307E-01
H61 -3.496918691368E-01 -2.571560870836E-01 -2.117057455307E-01
H62 3.939836366726E-01 -9.503458566810E-02 -1.641527921307E-01
H63 1.232386730050E-01 -4.387665792443E-01 -2.829015179840E-02
C64 -6.196513573745E-02 3.506775589553E-01 -1.390224437628E-01
H65 -2.378862953584E-01 1.257128101885E-01 -2.421687640863E-01
H66 4.387665792443E-01 -1.232386730050E-01 2.829015179840E-02
C67 -3.506775589553E-01 6.196513573745E-02 1.390224437628E-01
H68 -1.257128101885E-01 2.378862953584E-01 2.421687640863E-01
H69 -9.503458566810E-02 3.939836366726E-01 -1.641527921307E-01
H70 -3.939836366726E-01 9.503458566810E-02 1.641527921307E-01
C71 4.725876487355E-01 -4.725876487355E-01 -5.000000000000E-01
C72 -4.112382924440E-01 -3.048251654751E-01 -4.497528307422E-01
C73 3.048251654751E-01 4.112382924440E-01 4.497528307422E-01
C74 -4.725876487355E-01 4.725876487355E-01 -5.000000000000E-01
C75 -2.348762019041E-01 -1.811335005308E-01 -4.108671994554E-01
C76 -4.754155211614E-01 -2.600190509385E-01 -4.266424262509E-01
C77 1.811335005308E-01 2.348762019041E-01 4.108671994554E-01
C78 2.600190509385E-01 4.754155211614E-01 4.266424262509E-01
C79 4.112382924440E-01 3.048251654751E-01 4.497528307422E-01
C80 -3.048251654751E-01 -4.112382924440E-01 -4.497528307422E-01
C81 -1.811335005308E-01 -2.348762019041E-01 -4.108671994554E-01
C82 -1.082848872645E-01 -4.494585110075E-03 -3.650557539669E-01
C83 -3.933982879385E-01 -1.083989399237E-01 -4.698327232249E-01
C84 3.930170149171E-01 -3.590067125907E-01 -3.536544136108E-01
C85 2.348762019041E-01 1.811335005308E-01 4.108671994554E-01
C86 4.494585110075E-03 1.082848872645E-01 3.650557539669E-01
C87 1.083989399237E-01 3.933982879385E-01 4.698327232249E-01
C88 3.590067125907E-01 -3.930170149171E-01 3.536544136108E-01
C89 4.754155211614E-01 2.600190509385E-01 4.266424262509E-01
C90 -2.600190509385E-01 -4.754155211614E-01 -4.266424262509E-01
C91 -4.494585110075E-03 -1.082848872645E-01 -3.650557539669E-01
H92 -1.486795627396E-01 3.563913712312E-02 -3.626451937673E-01
C93 6.003597437536E-02 1.129021488023E-01 -3.246109394389E-01
H94 -2.918887499420E-01 -3.084265621954E-02 4.731631287750E-01
C95 -4.410010590835E-01 -5.708017082001E-02 -4.407992005219E-01
H96 3.295687252328E-01 -4.756306540202E-01 -3.187880412359E-01
C97 3.425121524947E-01 -3.101486702930E-01 -3.251993856094E-01
C98 1.082848872645E-01 4.494585110075E-03 3.650557539669E-01
H99 -3.563913712312E-02 1.486795627396E-01 3.626451937673E-01
C100 -1.129021488023E-01 -6.003597437536E-02 3.246109394389E-01
H101 3.084265621954E-02 2.918887499420E-01 -4.731631287750E-01
C102 5.708017082001E-02 4.410010590835E-01 4.407992005219E-01
H103 4.756306540202E-01 -3.295687252328E-01 3.187880412359E-01
C104 3.101486702930E-01 -3.425121524947E-01 3.251993856094E-01
C105 3.933982879385E-01 1.083989399237E-01 4.698327232249E-01
C106 -3.930170149171E-01 3.590067125907E-01 3.536544136108E-01
C107 -1.083989399237E-01 -3.933982879385E-01 -4.698327232249E-01
C108 -3.590067125907E-01 3.930170149171E-01 -3.536544136108E-01
H109 3.563913712312E-02 -1.486795627396E-01 -3.626451937673E-01
C110 1.129021488023E-01 6.003597437536E-02 -3.246109394389E-01
H111 1.529911755121E-01 2.452978000003E-01 -2.904645062427E-01
H112 -3.748623415809E-01 6.183355010308E-02 -4.745796895997E-01
C113 4.258901432399E-01 -1.583044383663E-01 -3.686523521387E-01
H114 2.386704276508E-01 -3.906479898399E-01 -2.688960855304E-01
H115 1.486795627396E-01 -3.563913712312E-02 3.626451937673E-01
C116 -6.003597437536E-02 -1.129021488023E-01 3.246109394389E-01
H117 -2.452978000003E-01 -1.529911755121E-01 2.904645062427E-01
H118 -6.183355010308E-02 3.748623415809E-01 4.745796895997E-01
C119 1.583044383663E-01 -4.258901432399E-01 3.686523521387E-01
H120 3.906479898399E-01 -2.386704276508E-01 2.688960855304E-01
H121 2.918887499420E-01 3.084265621954E-02 -4.731631287750E-01
C122 4.410010590835E-01 5.708017082001E-02 4.407992005219E-01
H123 -3.295687252328E-01 4.756306540202E-01 3.187880412359E-01
C124 -3.425121524947E-01 3.101486702930E-01 3.251993856094E-01
H125 -3.084265621954E-02 -2.918887499420E-01 4.731631287750E-01
C126 -5.708017082001E-02 -4.410010590835E-01 -4.407992005219E-01
H127 -4.756306540202E-01 3.295687252328E-01 -3.187880412359E-01
C128 -3.101486702930E-01 3.425121524947E-01 -3.251993856094E-01
H129 2.452978000003E-01 1.529911755121E-01 -2.904645062427E-01
H130 3.885304464727E-01 -1.181547430253E-01 -3.466473808526E-01
H131 -1.529911755121E-01 -2.452978000003E-01 2.904645062427E-01
H132 1.181547430253E-01 -3.885304464727E-01 3.466473808526E-01
H133 3.748623415809E-01 -6.183355010308E-02 4.745796895997E-01
C134 -4.258901432399E-01 1.583044383663E-01 3.686523521387E-01
H135 -2.386704276508E-01 3.906479898399E-01 2.688960855304E-01
H136 6.183355010308E-02 -3.748623415809E-01 -4.745796895997E-01
C137 -1.583044383663E-01 4.258901432399E-01 -3.686523521387E-01
H138 -3.906479898399E-01 2.386704276508E-01 -2.688960855304E-01
H139 -3.885304464727E-01 1.181547430253E-01 3.466473808526E-01
H140 -1.181547430253E-01 3.885304464727E-01 -3.466473808526E-01


#===END
