###############################################################
#
#primitive cell cif file
#
###############################################################

negm44_data

_symmetry_space_group_name_H-M 'P 1'
_cell_length_a      13.86596031
_cell_length_b      13.86596031
_cell_length_c      14.21100000
_cell_angle_alpha   90.000000
_cell_angle_beta    90.000000
_cell_angle_gamma   150.032293

loop_
_atom_site_label
_atom_site_fract_x
_atom_site_fract_y
_atom_site_fract_z
C1 2.776168211425E-02 -2.705654102778E-02 6.259822889311E-04
C2 -8.905448351847E-02 -1.959277116076E-01 5.014629764485E-02
C3 1.959922577025E-01 9.009317673520E-02 -4.908391769538E-02
C4 -2.776168211425E-02 2.705654102778E-02 -6.259822889311E-04
C5 -2.665046439976E-01 -3.207554819531E-01 8.810549720512E-02
C6 -2.535380202114E-02 -2.412702091493E-01 7.415814218120E-02
C7 3.185052670082E-01 2.652809620420E-01 -8.898895515558E-02
C8 2.407375293262E-01 2.615162386594E-02 -7.238448850939E-02
C9 8.905448351847E-02 1.959277116076E-01 -5.014629764485E-02
C10 -1.959922577025E-01 -9.009317673520E-02 4.908391769538E-02
C11 -3.185052670082E-01 -2.652809620420E-01 8.898895515558E-02
C12 -3.955640456690E-01 -4.995624547385E-01 1.323633151820E-01
C13 -1.056538119885E-01 -3.918460499538E-01 3.084477319731E-02
C14 1.023723644972E-01 -1.452826515926E-01 1.488505016606E-01
C15 2.665046439976E-01 3.207554819531E-01 -8.810549720512E-02
C16 4.920511982712E-01 3.884269122703E-01 -1.371580941187E-01
C17 3.896841859798E-01 1.045414606342E-01 -2.862991173450E-02
C18 1.449190531397E-01 -1.001239207344E-01 -1.476742554081E-01
C19 2.535380202114E-02 2.412702091493E-01 -7.415814218120E-02
C20 -2.407375293262E-01 -2.615162386594E-02 7.238448850939E-02
C21 -4.920511982712E-01 -3.884269122703E-01 1.371580941187E-01
H22 -3.580828314770E-01 4.573252157833E-01 1.329292632628E-01
C23 4.380722739670E-01 3.853942105719E-01 1.743087246177E-01
H24 -2.046569384424E-01 -4.677670533454E-01 -2.728926304321E-02
C25 -6.033219738072E-02 -4.449507462765E-01 6.139172570748E-02
H26 1.642461743178E-01 -2.985317284308E-02 1.840815654413E-01
C27 1.509996863190E-01 -1.955863404697E-01 1.786593952618E-01
C28 3.955640456690E-01 4.995624547385E-01 -1.323633151820E-01
H29 -4.703560673985E-01 3.455402999541E-01 -1.410824966261E-01
C30 -3.900134867345E-01 -4.431001591841E-01 -1.776819513943E-01
H31 4.644416056258E-01 2.017960612587E-01 3.019711096369E-02
C32 4.426006256883E-01 5.942001079175E-02 -6.009374539265E-02
H33 2.973717875132E-02 -1.609803748509E-01 -1.821948361758E-01
C34 1.960138295990E-01 -1.473105706255E-01 -1.788958156194E-01
C35 1.056538119885E-01 3.918460499538E-01 -3.084477319731E-02
C36 -1.023723644972E-01 1.452826515926E-01 -1.488505016606E-01
C37 -3.896841859798E-01 -1.045414606342E-01 2.862991173450E-02
C38 -1.449190531397E-01 1.001239207344E-01 1.476742554081E-01
H39 4.703560673985E-01 -3.455402999541E-01 1.410824966261E-01
C40 3.900134867345E-01 4.431001591841E-01 1.776819513943E-01
H41 3.433398355103E-01 2.514302508325E-01 2.073153899426E-01
H42 -1.256025603260E-01 4.366689259871E-01 2.756116390627E-02
C43 6.927013265126E-02 -3.463461802013E-01 1.350665840692E-01
H44 2.524144894591E-01 -1.166936987553E-01 2.360910464887E-01
H45 3.580828314770E-01 -4.573252157833E-01 -1.329292632628E-01
C46 -4.380722739670E-01 -3.853942105719E-01 -1.743087246177E-01
H47 -2.604280362507E-01 -3.533608581144E-01 -2.139258493454E-01
H48 -4.402641031542E-01 1.227737710981E-01 -2.614929829245E-02
C49 3.460269403877E-01 -6.680485984628E-02 -1.353035075549E-01
H50 1.183711215933E-01 -2.468013782485E-01 -2.371816320672E-01
H51 2.046569384424E-01 4.677670533454E-01 2.728926304321E-02
C52 6.033219738072E-02 4.449507462765E-01 -6.139172570748E-02
H53 -1.642461743178E-01 2.985317284308E-02 -1.840815654413E-01
C54 -1.509996863190E-01 1.955863404697E-01 -1.786593952618E-01
H55 -4.644416056258E-01 -2.017960612587E-01 -3.019711096369E-02
C56 -4.426006256883E-01 -5.942001079175E-02 6.009374539265E-02
H57 -2.973717875132E-02 1.609803748509E-01 1.821948361758E-01
C58 -1.960138295990E-01 1.473105706255E-01 1.788958156194E-01
H59 2.604280362507E-01 3.533608581144E-01 2.139258493454E-01
H60 1.050166867705E-01 -3.877425723203E-01 1.581062583784E-01
H61 -3.433398355103E-01 -2.514302508325E-01 -2.073153899426E-01
H62 3.880863213269E-01 -1.014874524248E-01 -1.593991528996E-01
H63 1.256025603260E-01 -4.366689259871E-01 -2.756116390627E-02
C64 -6.927013265126E-02 3.463461802013E-01 -1.350665840692E-01
H65 -2.524144894591E-01 1.166936987553E-01 -2.360910464887E-01
H66 4.402641031542E-01 -1.227737710981E-01 2.614929829245E-02
C67 -3.460269403877E-01 6.680485984628E-02 1.353035075549E-01
H68 -1.183711215933E-01 2.468013782485E-01 2.371816320672E-01
H69 -1.050166867705E-01 3.877425723203E-01 -1.581062583784E-01
H70 -3.880863213269E-01 1.014874524248E-01 1.593991528996E-01
C71 4.722383178857E-01 -4.729434589722E-01 -4.993740177111E-01
C72 -4.109455164815E-01 -3.040722883924E-01 -4.498537023551E-01
C73 3.040077422975E-01 4.099068232648E-01 4.509160823046E-01
C74 -4.722383178857E-01 4.729434589722E-01 4.993740177111E-01
C75 -2.334953560024E-01 -1.792445180469E-01 -4.118945027949E-01
C76 -4.746461979789E-01 -2.587297908507E-01 -4.258418578188E-01
C77 1.814947329918E-01 2.347190379580E-01 4.110110448444E-01
C78 2.592624706738E-01 4.738483761341E-01 4.276155114906E-01
C79 4.109455164815E-01 3.040722883924E-01 4.498537023551E-01
C80 -3.040077422975E-01 -4.099068232648E-01 -4.509160823046E-01
C81 -1.814947329918E-01 -2.347190379580E-01 -4.110110448444E-01
C82 -1.044359543310E-01 -4.375452615001E-04 -3.676366848180E-01
C83 -3.943461880115E-01 -1.081539500462E-01 -4.691552268027E-01
C84 3.976276355028E-01 -3.547173484074E-01 -3.511494983394E-01
C85 2.334953560024E-01 1.792445180469E-01 4.118945027949E-01
C86 7.948801728841E-03 1.115730877297E-01 3.628419058813E-01
C87 1.103158140202E-01 3.954585393658E-01 4.713700882655E-01
C88 3.550809468603E-01 -3.998760792656E-01 3.523257445919E-01
C89 4.746461979789E-01 2.587297908507E-01 4.258418578188E-01
C90 -2.592624706738E-01 -4.738483761341E-01 -4.276155114906E-01
C91 -7.948801728841E-03 -1.115730877297E-01 -3.628419058813E-01
H92 -1.419171685230E-01 4.267478421672E-02 -3.670707367372E-01
C93 6.192772603298E-02 1.146057894281E-01 -3.256912753823E-01
H94 -2.953430615576E-01 -3.223294665465E-02 4.727107369568E-01
C95 -4.396678026193E-01 -5.504925372354E-02 -4.386082742925E-01
H96 3.357538256822E-01 -4.701468271569E-01 -3.159184345587E-01
C97 3.490003136810E-01 -3.044136595303E-01 -3.213406047382E-01
C98 1.044359543310E-01 4.375452614999E-04 3.676366848180E-01
H99 -2.964393260154E-02 1.544597000459E-01 3.589175033739E-01
C100 -1.099865132655E-01 -5.689984081593E-02 3.223180486057E-01
H101 3.555839437416E-02 2.982039387413E-01 -4.698028890363E-01
C102 5.739937431169E-02 4.405799892083E-01 4.399062546073E-01
H103 4.702628212487E-01 -3.390196251491E-01 3.178051638242E-01
C104 3.039861704010E-01 -3.526894293745E-01 3.211041843805E-01
C105 3.943461880115E-01 1.081539500462E-01 4.691552268027E-01
C106 -3.976276355028E-01 3.547173484074E-01 3.511494983394E-01
C107 -1.103158140202E-01 -3.954585393658E-01 -4.713700882655E-01
C108 -3.550809468603E-01 3.998760792656E-01 -3.523257445919E-01
H109 2.964393260154E-02 -1.544597000459E-01 -3.589175033739E-01
C110 1.099865132655E-01 5.689984081593E-02 -3.223180486057E-01
H111 1.566601644897E-01 2.485697491675E-01 -2.926846100574E-01
H112 -3.743974396740E-01 6.333107401294E-02 -4.724388360937E-01
C113 4.307298673487E-01 -1.536538197987E-01 -3.649334159308E-01
H114 2.475855105409E-01 -3.833063012447E-01 -2.639089535113E-01
H115 1.419171685230E-01 -4.267478421672E-02 3.670707367372E-01
C116 -6.192772603298E-02 -1.146057894281E-01 3.256912753823E-01
H117 -2.395719637493E-01 -1.466391418856E-01 2.860741506546E-01
H118 -5.973589684583E-02 3.772262289019E-01 4.738507017076E-01
C119 1.539730596123E-01 -4.331951401537E-01 3.646964924451E-01
H120 3.816288784067E-01 -2.531986217515E-01 2.628183679328E-01
H121 2.953430615576E-01 3.223294665465E-02 -4.727107369568E-01
C122 4.396678026193E-01 5.504925372354E-02 4.386082742925E-01
H123 -3.357538256822E-01 4.701468271569E-01 3.159184345587E-01
C124 -3.490003136810E-01 3.044136595303E-01 3.213406047382E-01
H125 -3.555839437416E-02 -2.982039387413E-01 4.698028890363E-01
C126 -5.739937431169E-02 -4.405799892083E-01 -4.399062546073E-01
H127 -4.702628212487E-01 3.390196251491E-01 -3.178051638242E-01
C128 -3.039861704010E-01 3.526894293745E-01 -3.211041843806E-01
H129 2.395719637493E-01 1.466391418856E-01 -2.860741506546E-01
H130 3.949833132295E-01 -1.122574276797E-01 -3.418937416216E-01
H131 -1.566601644897E-01 -2.485697491675E-01 2.926846100574E-01
H132 1.119136786731E-01 -3.985125475752E-01 3.406008471004E-01
H133 3.743974396740E-01 -6.333107401294E-02 4.724388360937E-01
C134 -4.307298673487E-01 1.536538197987E-01 3.649334159308E-01
H135 -2.475855105409E-01 3.833063012447E-01 2.639089535113E-01
H136 5.973589684583E-02 -3.772262289019E-01 -4.738507017076E-01
C137 -1.539730596123E-01 4.331951401537E-01 -3.646964924451E-01
H138 -3.816288784067E-01 2.531986217515E-01 -2.628183679328E-01
H139 -3.949833132295E-01 1.122574276797E-01 3.418937416216E-01
H140 -1.119136786731E-01 3.985125475752E-01 -3.406008471004E-01


#===END
