###############################################################
#
#primitive cell cif file
#
###############################################################

negm48_data

_symmetry_space_group_name_H-M 'P 1'
_cell_length_a      13.86596031
_cell_length_b      13.86596031
_cell_length_c      14.21100000
_cell_angle_alpha   90.000000
_cell_angle_beta    90.000000
_cell_angle_gamma   150.032293

loop_
_atom_site_label
_atom_site_fract_x
_atom_site_fract_y
_atom_site_fract_z
C1 2.766355508168E-02 -2.766355508168E-02 0.000000000000E+00
C2 -9.090346985493E-02 -1.976140713660E-01 4.876201998515E-02
C3 1.976140713660E-01 9.090346985493E-02 -4.876201998515E-02
C4 -2.715466806036E-02 2.715466806036E-02 0.000000000000E+00
C5 -2.660796339433E-01 -3.197927669970E-01 8.860264739575E-02
C6 -2.789202076000E-02 -2.435768671262E-01 7.200181041996E-02
C7 3.197927669970E-01 2.660796339433E-01 -8.860264739575E-02
C8 2.435768671262E-01 2.789202076000E-02 -7.200181041996E-02
C9 8.824419039874E-02 1.943058979441E-01 -5.046819535508E-02
C10 -1.943058979441E-01 -8.824419039874E-02 5.046819535508E-02
C11 -3.194679819642E-01 -2.657059720963E-01 8.849180496496E-02
C12 -3.905920237174E-01 -4.939678898059E-01 1.367054059816E-01
C13 -1.059654265624E-01 -3.928333138691E-01 2.892634874407E-02
C14 9.901632652074E-02 -1.466495242195E-01 1.471363975786E-01
C15 2.657059720963E-01 3.194679819642E-01 -8.849180496496E-02
C16 4.939678898059E-01 3.905920237174E-01 -1.367054059816E-01
C17 3.928333138691E-01 1.059654265624E-01 -2.892634874407E-02
C18 1.466495242195E-01 -9.901632652074E-02 -1.471363975786E-01
C19 2.361340512709E-02 2.384308713493E-01 -7.454082027064E-02
C20 -2.384308713493E-01 -2.361340512709E-02 7.454082027064E-02
C21 -4.976457632037E-01 -3.933989342219E-01 1.328160033191E-01
H22 -3.491319060636E-01 4.670032110976E-01 1.405234622350E-01
C23 4.417698992423E-01 3.896137133540E-01 1.775802354052E-01
H24 -2.040353327801E-01 -4.691164508495E-01 -2.972386499451E-02
C25 -5.888508552783E-02 -4.438147188139E-01 6.073164893801E-02
H26 1.593613780355E-01 -3.155481196606E-02 1.812750601460E-01
C27 1.483048060351E-01 -1.955596049009E-01 1.785682917985E-01
C28 3.933989342219E-01 4.976457632037E-01 -1.328160033191E-01
H29 -4.670032110976E-01 3.491319060636E-01 -1.405234622350E-01
C30 -3.896137133540E-01 -4.417698992423E-01 -1.775802354052E-01
H31 4.691164508495E-01 2.040353327801E-01 2.972386499451E-02
C32 4.438147188139E-01 5.888508552783E-02 -6.073164893801E-02
H33 3.155481196606E-02 -1.593613780355E-01 -1.812750601460E-01
C34 1.955596049009E-01 -1.483048060351E-01 -1.785682917985E-01
C35 1.042298460603E-01 3.886969220644E-01 -3.054833618774E-02
C36 -1.034799587109E-01 1.435521805128E-01 -1.493883594902E-01
C37 -3.886969220644E-01 -1.042298460603E-01 3.054833618774E-02
C38 -1.435521805128E-01 1.034799587109E-01 1.493883594902E-01
H39 4.606780720842E-01 -3.544912253676E-01 1.334882976539E-01
C40 3.857939839523E-01 4.394025339087E-01 1.744104406067E-01
H41 3.511786289405E-01 2.596909911842E-01 2.138575194122E-01
H42 -1.218876270055E-01 4.389416759251E-01 2.731447065238E-02
C43 6.884869366290E-02 -3.451996847717E-01 1.354616021728E-01
H44 2.485603596280E-01 -1.165524609689E-01 2.366370481046E-01
H45 3.544912253676E-01 -4.606780720842E-01 -1.334882976539E-01
C46 -4.394025339087E-01 -3.857939839523E-01 -1.744104406067E-01
H47 -2.596909911842E-01 -3.511786289405E-01 -2.138575194122E-01
H48 -4.389416759251E-01 1.218876270055E-01 -2.731447065238E-02
C49 3.451996847717E-01 -6.884869366290E-02 -1.354616021728E-01
H50 1.165524609689E-01 -2.485603596280E-01 -2.366370481046E-01
H51 2.024176669209E-01 4.630922081217E-01 2.776250901238E-02
C52 6.086712264464E-02 4.437366531509E-01 -6.075382216213E-02
H53 -1.658651711332E-01 2.803553962835E-02 -1.850013414710E-01
C54 -1.500054509094E-01 1.960405651677E-01 -1.789869190828E-01
H55 -4.630922081217E-01 -2.024176669209E-01 -2.776250901238E-02
C56 -4.437366531509E-01 -6.086712264464E-02 6.075382216213E-02
H57 -2.803553962835E-02 1.658651711332E-01 1.850013414710E-01
C58 -1.960405651677E-01 1.500054509094E-01 1.789869190828E-01
H59 2.521672958990E-01 3.455220646842E-01 2.073837198758E-01
H60 1.052092357299E-01 -3.855880976657E-01 1.596207519767E-01
H61 -3.455220646842E-01 -2.521672958990E-01 -2.073837198758E-01
H62 3.855880976657E-01 -1.052092357299E-01 -1.596207519767E-01
H63 1.264887044186E-01 -4.379913532161E-01 -2.639599154634E-02
C64 -6.722629883464E-02 3.471734358173E-01 -1.349084894513E-01
H65 -2.506555080796E-01 1.185123593797E-01 -2.366356304513E-01
H66 4.379913532161E-01 -1.264887044186E-01 2.639599154634E-02
C67 -3.471734358173E-01 6.722629883464E-02 1.349084894513E-01
H68 -1.185123593797E-01 2.506555080796E-01 2.366356304513E-01
H69 -1.012949034654E-01 3.902407959815E-01 -1.578846593013E-01
H70 -3.902407959815E-01 1.012949034654E-01 1.578846593013E-01
C71 4.728453319396E-01 -4.728453319396E-01 -5.000000000000E-01
C72 -4.117558096013E-01 -3.056941020559E-01 -4.495318046449E-01
C73 3.056941020559E-01 4.117558096013E-01 4.495318046449E-01
C74 -4.723364449183E-01 4.723364449183E-01 -5.000000000000E-01
C75 -2.342940279037E-01 -1.805320180358E-01 -4.115081950350E-01
C76 -4.763865948729E-01 -2.615691286507E-01 -4.254591797294E-01
C77 1.805320180358E-01 2.342940279037E-01 4.115081950350E-01
C78 2.615691286507E-01 4.763865948729E-01 4.254591797294E-01
C79 4.090965301451E-01 3.023859286340E-01 4.512379800148E-01
C80 -3.023859286340E-01 -4.090965301451E-01 -4.512379800148E-01
C81 -1.802072330030E-01 -2.339203660567E-01 -4.113973526043E-01
C82 -1.066010657781E-01 -2.354236796258E-03 -3.671839966809E-01
C83 -3.957701539397E-01 -1.113030779356E-01 -4.694516638123E-01
C84 3.965200412891E-01 -3.564478194872E-01 -3.506116405098E-01
C85 2.339203660567E-01 1.802072330030E-01 4.113973526043E-01
C86 2.354236796258E-03 1.066010657781E-01 3.671839966809E-01
C87 1.113030779356E-01 3.957701539397E-01 4.694516638123E-01
C88 3.564478194872E-01 -3.965200412891E-01 3.506116405098E-01
C89 4.721079792400E-01 2.564231328738E-01 4.279981895800E-01
C90 -2.564231328738E-01 -4.721079792400E-01 -4.279981895800E-01
C91 -6.032110194082E-03 -1.094079762826E-01 -3.632945940184E-01
H92 -1.455087746324E-01 3.932192791584E-02 -3.665117023461E-01
C93 6.059746609126E-02 1.142060160477E-01 -3.255895593933E-01
H94 -2.975823330791E-01 -3.690779187827E-02 4.722374909876E-01
C95 -4.391328773554E-01 -5.626334684911E-02 -4.392461778379E-01
H96 3.341348288668E-01 -4.719644603717E-01 -3.149986585290E-01
C97 3.499945490906E-01 -3.039594348323E-01 -3.210130809172E-01
C98 1.094079762826E-01 6.032110194082E-03 3.632945940184E-01
H99 -3.932192791584E-02 1.455087746324E-01 3.665117023461E-01
C100 -1.142060160477E-01 -6.059746609126E-02 3.255895593933E-01
H101 3.690779187827E-02 2.975823330791E-01 -4.722374909876E-01
C102 5.626334684911E-02 4.391328773554E-01 4.392461778379E-01
H103 4.719644603717E-01 -3.341348288668E-01 3.149986585290E-01
C104 3.039594348323E-01 -3.499945490906E-01 3.210130809172E-01
C105 3.940345734376E-01 1.071666861309E-01 4.710736512559E-01
C106 -4.009836734793E-01 3.533504757805E-01 3.528636024214E-01
C107 -1.071666861309E-01 -3.940345734376E-01 -4.710736512559E-01
C108 -3.533504757805E-01 4.009836734793E-01 -3.528636024214E-01
H109 3.299678890241E-02 -1.508680939364E-01 -3.594765377650E-01
C110 1.103862866460E-01 5.823010075766E-02 -3.224197645948E-01
H111 1.544779353158E-01 2.478327041010E-01 -2.926162801242E-01
H112 -3.735112955814E-01 6.200864678390E-02 -4.736040084537E-01
C113 4.327737011654E-01 -1.528265641827E-01 -3.650915105487E-01
H114 2.493444919204E-01 -3.814876406203E-01 -2.633643695487E-01
H115 1.508680939364E-01 -3.299678890241E-02 3.594765377650E-01
C116 -5.823010075766E-02 -1.103862866460E-01 3.224197645948E-01
H117 -2.478327041010E-01 -1.544779353158E-01 2.926162801242E-01
H118 -6.200864678390E-02 3.735112955814E-01 4.736040084537E-01
C119 1.528265641827E-01 -4.327737011654E-01 3.650915105487E-01
H120 3.814876406203E-01 -2.493444919204E-01 2.633643695487E-01
H121 2.959646672199E-01 3.088354915054E-02 -4.702761350055E-01
C122 4.411149144722E-01 5.618528118612E-02 4.392683510620E-01
H123 -3.406386219645E-01 4.684451880339E-01 3.187249398540E-01
C124 -3.516951939649E-01 3.044403950991E-01 3.214317082015E-01
H125 -3.088354915054E-02 -2.959646672199E-01 4.702761350055E-01
C126 -5.618528118612E-02 -4.411149144722E-01 -4.392683510620E-01
H127 -4.684451880339E-01 3.406386219645E-01 -3.187249398540E-01
C128 -3.044403950991E-01 3.516951939649E-01 -3.214317082015E-01
H129 2.403090088158E-01 1.488213710595E-01 -2.861424805878E-01
H130 3.987050965346E-01 -1.097592040185E-01 -3.421153406987E-01
H131 -1.488213710595E-01 -2.403090088158E-01 2.861424805878E-01
H132 1.097592040185E-01 -3.987050965346E-01 3.421153406987E-01
H133 3.781123729945E-01 -6.105832407486E-02 4.726855293476E-01
C134 -4.311513063371E-01 1.548003152283E-01 3.645383978272E-01
H135 -2.514396403720E-01 3.834475390311E-01 2.633629518954E-01
H136 6.105832407486E-02 -3.781123729945E-01 -4.726855293476E-01
C137 -1.548003152283E-01 4.311513063371E-01 -3.645383978272E-01
H138 -3.834475390311E-01 2.514396403720E-01 -2.633629518954E-01
H139 -3.947907642701E-01 1.144119023343E-01 3.403792480233E-01
H140 -1.144119023343E-01 3.947907642701E-01 -3.403792480233E-01


#===END
