###############################################################
#
#primitive cell cif file
#
###############################################################

negm30_data

_symmetry_space_group_name_H-M 'P 1'
_cell_length_a      13.86596031
_cell_length_b      13.86596031
_cell_length_c      14.21100000
_cell_angle_alpha   90.000000
_cell_angle_beta    90.000000
_cell_angle_gamma   150.032293

loop_
_atom_site_label
_atom_site_fract_x
_atom_site_fract_y
_atom_site_fract_z
C1 2.725730702740E-02 -2.725730702740E-02 0.000000000000E+00
C2 -8.957992083504E-02 -1.957122490213E-01 4.968090026726E-02
C3 1.957122490213E-01 8.957992083504E-02 -4.968090026726E-02
C4 -2.756091611464E-02 2.756091611464E-02 0.000000000000E+00
C5 -2.659200603957E-01 -3.194531021444E-01 8.857173855485E-02
C6 -2.520962668457E-02 -2.402712351514E-01 7.298450464513E-02
C7 3.194531021444E-01 2.659200603957E-01 -8.857173855485E-02
C8 2.402712351514E-01 2.520962668457E-02 -7.298450464513E-02
C9 8.956773941863E-02 1.962077202888E-01 -4.954931507297E-02
C10 -1.962077202888E-01 -8.956773941863E-02 4.954931507297E-02
C11 -3.198076468169E-01 -2.658655456439E-01 8.852271380585E-02
C12 -3.918946230073E-01 -4.955881502251E-01 1.347468435808E-01
C13 -1.043124299295E-01 -3.897487838917E-01 2.921119691035E-02
C14 1.038539307431E-01 -1.427707659699E-01 1.470946917559E-01
C15 2.658655456439E-01 3.198076468169E-01 -8.852271380585E-02
C16 4.955881502251E-01 3.918946230073E-01 -1.347468435808E-01
C17 3.897487838917E-01 1.043124299295E-01 -2.921119691035E-02
C18 1.427707659699E-01 -1.038539307431E-01 -1.470946917559E-01
C19 2.629579920251E-02 2.417365033241E-01 -7.355812604546E-02
C20 -2.417365033241E-01 -2.629579920251E-02 7.355812604546E-02
C21 -4.960255027846E-01 -3.920963349320E-01 1.347745657199E-01
H22 -3.514493139813E-01 4.643125113087E-01 1.369428718731E-01
C23 4.406234613720E-01 3.877834279212E-01 1.759783340934E-01
H24 -2.039616794299E-01 -4.662384936161E-01 -2.863126767617E-02
C25 -5.621011451517E-02 -4.404061210332E-01 5.881134563479E-02
H26 1.650257075868E-01 -2.772700917202E-02 1.822272141946E-01
C27 1.545091461747E-01 -1.912074529778E-01 1.762451666344E-01
C28 3.920963349320E-01 4.960255027846E-01 -1.347745657199E-01
H29 -4.643125113087E-01 3.514493139813E-01 -1.369428718731E-01
C30 -3.877834279212E-01 -4.406234613720E-01 -1.759783340934E-01
H31 4.662384936161E-01 2.039616794299E-01 2.863126767617E-02
C32 4.404061210332E-01 5.621011451517E-02 -5.881134563479E-02
H33 2.772700917202E-02 -1.650257075868E-01 -1.822272141946E-01
C34 1.912074529778E-01 -1.545091461747E-01 -1.762451666344E-01
C35 1.058828426932E-01 3.917814520418E-01 -3.026348802146E-02
C36 -9.864235448852E-02 1.474309387624E-01 -1.494300653129E-01
C37 -3.917814520418E-01 -1.058828426932E-01 3.026348802146E-02
C38 -1.474309387624E-01 9.864235448852E-02 1.494300653129E-01
H39 4.633687718730E-01 -3.521738174499E-01 1.370688880158E-01
C40 3.876242693852E-01 4.405489717791E-01 1.760123419185E-01
H41 3.484393398391E-01 2.560252185046E-01 2.105909294267E-01
H42 -1.201398034987E-01 4.422724315051E-01 2.453560600197E-02
C43 7.408232349384E-02 -3.409501275990E-01 1.322478983814E-01
H44 2.563398776264E-01 -1.118719279857E-01 2.334820827249E-01
H45 3.521738174499E-01 -4.633687718730E-01 -1.370688880158E-01
C46 -4.405489717791E-01 -3.876242693852E-01 -1.760123419185E-01
H47 -2.560252185046E-01 -3.484393398391E-01 -2.105909294267E-01
H48 -4.422724315051E-01 1.201398034987E-01 -2.453560600197E-02
C49 3.409501275990E-01 -7.408232349384E-02 -1.322478983814E-01
H50 1.118719279857E-01 -2.563398776264E-01 -2.334820827249E-01
H51 2.024913202711E-01 4.659701653551E-01 2.885510633073E-02
C52 6.354209365729E-02 4.471452509315E-01 -6.267412546534E-02
H53 -1.602008415819E-01 3.186334242239E-02 -1.840491874224E-01
C54 -1.438011107698E-01 2.003927170908E-01 -1.813100442469E-01
H55 -4.659701653551E-01 -2.024913202711E-01 -2.885510633073E-02
C56 -4.471452509315E-01 -6.354209365729E-02 6.267412546534E-02
H57 -3.186334242239E-02 1.602008415819E-01 1.840491874224E-01
C58 -2.003927170908E-01 1.438011107698E-01 1.813100442469E-01
H59 2.558330685787E-01 3.482613537856E-01 2.106503098613E-01
H60 1.113425652006E-01 -3.809624732081E-01 1.549764807211E-01
H61 -3.482613537856E-01 -2.558330685787E-01 -2.106503098613E-01
H62 3.809624732081E-01 -1.113425652006E-01 -1.549764807211E-01
H63 1.282365279254E-01 -4.346605976361E-01 -2.917485619675E-02
C64 -6.199266900370E-02 3.514229929900E-01 -1.381221932427E-01
H65 -2.428759900812E-01 1.231928923629E-01 -2.397905958310E-01
H66 4.346605976361E-01 -1.282365279254E-01 2.917485619675E-02
C67 -3.514229929900E-01 6.199266900370E-02 1.381221932427E-01
H68 -1.231928923629E-01 2.428759900812E-01 2.397905958310E-01
H69 -9.516157399478E-02 3.948664204391E-01 -1.625289305569E-01
H70 -3.948664204391E-01 9.516157399478E-02 1.625289305569E-01
C71 4.727426929726E-01 -4.727426929726E-01 -5.000000000000E-01
C72 -4.104200791650E-01 -3.042877509787E-01 -4.503190997327E-01
C73 3.042877509787E-01 4.104200791650E-01 4.503190997327E-01
C74 -4.724390838854E-01 4.724390838854E-01 -5.000000000000E-01
C75 -2.340799396043E-01 -1.805468978556E-01 -4.114282614451E-01
C76 -4.747903733154E-01 -2.597287648486E-01 -4.270154953549E-01
C77 1.805468978556E-01 2.340799396043E-01 4.114282614451E-01
C78 2.597287648486E-01 4.747903733154E-01 4.270154953549E-01
C79 4.104322605814E-01 3.037922797112E-01 4.504506849270E-01
C80 -3.037922797112E-01 -4.104322605814E-01 -4.504506849270E-01
C81 -1.801923531831E-01 -2.341344543561E-01 -4.114772861941E-01
C82 -1.081053769927E-01 -4.411849774915E-03 -3.652531564192E-01
C83 -3.956875700705E-01 -1.102512161083E-01 -4.707888030896E-01
C84 3.961460692569E-01 -3.572292340301E-01 -3.529053082441E-01
C85 2.341344543561E-01 1.801923531831E-01 4.114772861941E-01
C86 4.411849774915E-03 1.081053769927E-01 3.652531564192E-01
C87 1.102512161083E-01 3.956875700705E-01 4.707888030896E-01
C88 3.572292340301E-01 -3.961460692569E-01 3.529053082441E-01
C89 4.737042007975E-01 2.582634966759E-01 4.264418739545E-01
C90 -2.582634966759E-01 -4.737042007975E-01 -4.264418739545E-01
C91 -3.974497215426E-03 -1.079036650680E-01 -3.652254342801E-01
H92 -1.485506860187E-01 3.568748869126E-02 -3.630571281269E-01
C93 5.937653862804E-02 1.122165720788E-01 -3.240216659066E-01
H94 -2.960383205701E-01 -3.376150638389E-02 4.713687323238E-01
C95 -4.437898854848E-01 -5.959387896678E-02 -4.411886543652E-01
H96 3.349742924132E-01 -4.722729908280E-01 -3.177727858054E-01
C97 3.454908538253E-01 -3.087925470222E-01 -3.237548333656E-01
C98 1.079036650680E-01 3.974497215426E-03 3.652254342801E-01
H99 -3.568748869126E-02 1.485506860187E-01 3.630571281269E-01
C100 -1.122165720788E-01 -5.937653862804E-02 3.240216659066E-01
H101 3.376150638389E-02 2.960383205701E-01 -4.713687323238E-01
C102 5.959387896678E-02 4.437898854848E-01 4.411886543652E-01
H103 4.722729908280E-01 -3.349742924132E-01 3.177727858054E-01
C104 3.087925470222E-01 -3.454908538253E-01 3.237548333656E-01
C105 3.941171573068E-01 1.082185479582E-01 4.697365119785E-01
C106 -4.013576455115E-01 3.525690612376E-01 3.505699346871E-01
C107 -1.082185479582E-01 -3.941171573068E-01 -4.697365119785E-01
C108 -3.525690612376E-01 4.013576455115E-01 -3.505699346871E-01
H109 3.663122812700E-02 -1.478261825501E-01 -3.629311119842E-01
C110 1.123757306148E-01 5.945102822087E-02 -3.239876580815E-01
H111 1.515606601609E-01 2.439747814954E-01 -2.894090705733E-01
H112 -3.798601965013E-01 5.772756849491E-02 -4.754643939980E-01
C113 4.259176765062E-01 -1.590498724010E-01 -3.677521016186E-01
H114 2.436601223736E-01 -3.881280720143E-01 -2.665179172751E-01
H115 1.478261825501E-01 -3.663122812700E-02 3.629311119842E-01
C116 -5.945102822087E-02 -1.123757306148E-01 3.239876580815E-01
H117 -2.439747814954E-01 -1.515606601609E-01 2.894090705733E-01
H118 -5.772756849491E-02 3.798601965013E-01 4.754643939980E-01
C119 1.590498724010E-01 -4.259176765062E-01 3.677521016186E-01
H120 3.881280720143E-01 -2.436601223736E-01 2.665179172751E-01
H121 2.975086797289E-01 3.402983464491E-02 -4.711448936693E-01
C122 4.364579063427E-01 5.285474906845E-02 4.373258745347E-01
H123 -3.397991584181E-01 4.681366575776E-01 3.159508125776E-01
C124 -3.561988892302E-01 2.996072829092E-01 3.186899557531E-01
H125 -3.402983464491E-02 -2.975086797289E-01 4.711448936693E-01
C126 -5.285474906845E-02 -4.364579063427E-01 -4.373258745347E-01
H127 -4.681366575776E-01 3.397991584181E-01 -3.159508125776E-01
C128 -2.996072829092E-01 3.561988892302E-01 -3.186899557531E-01
H129 2.441669314213E-01 1.517386462144E-01 -2.893496901387E-01
H130 3.886574347994E-01 -1.190375267919E-01 -3.450235192789E-01
H131 -1.517386462144E-01 -2.441669314213E-01 2.893496901387E-01
H132 1.190375267919E-01 -3.886574347994E-01 3.450235192789E-01
H133 3.717634720746E-01 -6.533940236386E-02 4.708251438033E-01
C134 -4.380073309963E-01 1.485770070100E-01 3.618778067573E-01
H135 -2.571240099188E-01 3.768071076371E-01 2.602094041690E-01
H136 6.533940236386E-02 -3.717634720746E-01 -4.708251438033E-01
C137 -1.485770070100E-01 4.380073309963E-01 -3.618778067573E-01
H138 -3.768071076371E-01 2.571240099188E-01 -2.602094041690E-01
H139 -4.048384260052E-01 1.051335795609E-01 3.374710694431E-01
H140 -1.051335795609E-01 4.048384260052E-01 -3.374710694431E-01


#===END
