###############################################################
#
#primitive cell cif file
#
###############################################################

negm7_data

_symmetry_space_group_name_H-M 'P 1'
_cell_length_a      13.86596031
_cell_length_b      13.86596031
_cell_length_c      14.21100000
_cell_angle_alpha   90.000000
_cell_angle_beta    90.000000
_cell_angle_gamma   150.032293

loop_
_atom_site_label
_atom_site_fract_x
_atom_site_fract_y
_atom_site_fract_z
C1 2.741578470843E-02 -2.741578470843E-02 0.000000000000E+00
C2 -9.028049545147E-02 -1.966349399876E-01 4.917555642601E-02
C3 1.966349399876E-01 9.028049545147E-02 -4.917555642601E-02
C4 -2.741578470843E-02 2.741578470843E-02 0.000000000000E+00
C5 -2.664336838307E-01 -3.201385814493E-01 8.826719018936E-02
C6 -2.949579867284E-02 -2.450988272248E-01 7.163815619865E-02
C7 3.201385814493E-01 2.664336838307E-01 -8.826719018936E-02
C8 2.450988272248E-01 2.949579867284E-02 -7.163815619865E-02
C9 9.028049545147E-02 1.966349399876E-01 -4.917555642601E-02
C10 -1.966349399876E-01 -9.028049545147E-02 4.917555642601E-02
C11 -3.201385814493E-01 -2.664336838307E-01 8.826719018936E-02
C12 -3.934371474539E-01 -4.972771412426E-01 1.337221703458E-01
C13 -1.069650585174E-01 -3.916990397384E-01 2.462670288558E-02
C14 8.962248738838E-02 -1.584178386082E-01 1.493629283689E-01
C15 2.664336838307E-01 3.201385814493E-01 -8.826719018936E-02
C16 4.972771412426E-01 3.934371474539E-01 -1.337221703458E-01
C17 3.916990397384E-01 1.069650585174E-01 -2.462670288558E-02
C18 1.584178386082E-01 -8.962248738838E-02 -1.493629283689E-01
C19 2.949579867284E-02 2.450988272248E-01 -7.163815619865E-02
C20 -2.450988272248E-01 -2.949579867284E-02 7.163815619865E-02
C21 -4.972771412426E-01 -3.934371474539E-01 1.337221703458E-01
H22 -3.531863199530E-01 4.624202743164E-01 1.357914529522E-01
C23 4.378811304713E-01 3.849723482168E-01 1.738896165216E-01
H24 -1.992730956110E-01 -4.600285652922E-01 -3.581805817522E-02
C25 -6.802021463431E-02 -4.510687693799E-01 5.515934833868E-02
H26 1.495757526676E-01 -4.549890363361E-02 1.868620931167E-01
C27 1.311075559633E-01 -2.156948678291E-01 1.794743716570E-01
C28 3.934371474539E-01 4.972771412426E-01 -1.337221703458E-01
H29 -4.624202743164E-01 3.531863199530E-01 -1.357914529522E-01
C30 -3.849723482168E-01 -4.378811304713E-01 -1.738896165216E-01
H31 4.600285652922E-01 1.992730956110E-01 3.581805817522E-02
C32 4.510687693799E-01 6.802021463431E-02 -5.515934833868E-02
H33 4.549890363361E-02 -1.495757526676E-01 -1.868620931167E-01
C34 2.156948678291E-01 -1.311075559633E-01 -1.794743716570E-01
C35 1.069650585174E-01 3.916990397384E-01 -2.462670288558E-02
C36 -8.962248738838E-02 1.584178386082E-01 -1.493629283689E-01
C37 -3.916990397384E-01 -1.069650585174E-01 2.462670288558E-02
C38 -1.584178386082E-01 8.962248738838E-02 1.493629283689E-01
H39 4.624202743164E-01 -3.531863199530E-01 1.357914529522E-01
C40 3.849723482168E-01 4.378811304713E-01 1.738896165216E-01
H41 3.442567621794E-01 2.518368432859E-01 2.074545358050E-01
H42 -1.307368022951E-01 4.337993327481E-01 1.849830318655E-02
C43 5.136474554439E-02 -3.633439897279E-01 1.326152614608E-01
H44 2.255615300262E-01 -1.444867955975E-01 2.395191337320E-01
H45 3.531863199530E-01 -4.624202743164E-01 -1.357914529522E-01
C46 -4.378811304713E-01 -3.849723482168E-01 -1.738896165216E-01
H47 -2.518368432859E-01 -3.442567621794E-01 -2.074545358050E-01
H48 -4.337993327481E-01 1.307368022951E-01 -1.849830318655E-02
C49 3.633439897279E-01 -5.136474554439E-02 -1.326152614608E-01
H50 1.444867955975E-01 -2.255615300262E-01 -2.395191337320E-01
H51 1.992730956110E-01 4.600285652922E-01 3.581805817522E-02
C52 6.802021463431E-02 4.510687693799E-01 -5.515934833868E-02
H53 -1.495757526676E-01 4.549890363361E-02 -1.868620931167E-01
C54 -1.311075559633E-01 2.156948678291E-01 -1.794743716570E-01
H55 -4.600285652922E-01 -1.992730956110E-01 -3.581805817522E-02
C56 -4.510687693799E-01 -6.802021463431E-02 5.515934833868E-02
H57 -4.549890363361E-02 1.495757526676E-01 1.868620931167E-01
C58 -2.156948678291E-01 1.311075559633E-01 1.794743716570E-01
H59 2.518368432859E-01 3.442567621794E-01 2.074545358050E-01
H60 8.090608975478E-02 -4.107500739724E-01 1.560557828676E-01
H61 -3.442567621794E-01 -2.518368432859E-01 -2.074545358050E-01
H62 4.107500739724E-01 -8.090608975478E-02 -1.560557828676E-01
H63 1.307368022951E-01 -4.337993327481E-01 -1.849830318655E-02
C64 -5.136474554439E-02 3.633439897279E-01 -1.326152614608E-01
H65 -2.255615300262E-01 1.444867955975E-01 -2.395191337320E-01
H66 4.337993327481E-01 -1.307368022951E-01 1.849830318655E-02
C67 -3.633439897279E-01 5.136474554439E-02 1.326152614608E-01
H68 -1.444867955975E-01 2.255615300262E-01 2.395191337320E-01
H69 -8.090608975478E-02 4.107500739724E-01 -1.560557828676E-01
H70 -4.107500739724E-01 8.090608975478E-02 1.560557828676E-01
C71 4.725842152916E-01 -4.725842152916E-01 -5.000000000000E-01
C72 -4.097195045485E-01 -3.033650600124E-01 -4.508244435740E-01
C73 3.033650600124E-01 4.097195045485E-01 4.508244435740E-01
C74 -4.725842152916E-01 4.725842152916E-01 -5.000000000000E-01
C75 -2.335663161693E-01 -1.798614185507E-01 -4.117328098106E-01
C76 -4.705042013272E-01 -2.549011727752E-01 -4.283618438014E-01
C77 1.798614185507E-01 2.335663161693E-01 4.117328098106E-01
C78 2.549011727752E-01 4.705042013272E-01 4.283618438014E-01
C79 4.097195045485E-01 3.033650600124E-01 4.508244435740E-01
C80 -3.033650600124E-01 -4.097195045485E-01 -4.508244435740E-01
C81 -1.798614185507E-01 -2.335663161693E-01 -4.117328098106E-01
C82 -1.065628525461E-01 -2.722858757384E-03 -3.662778296542E-01
C83 -3.930349414826E-01 -1.083009602616E-01 -4.753732971144E-01
C84 4.103775126116E-01 -3.415821613918E-01 -3.506370716311E-01
C85 2.335663161693E-01 1.798614185507E-01 4.117328098106E-01
C86 2.722858757384E-03 1.065628525461E-01 3.662778296542E-01
C87 1.083009602616E-01 3.930349414826E-01 4.753732971144E-01
C88 3.415821613918E-01 -4.103775126116E-01 3.506370716311E-01
C89 4.705042013272E-01 2.549011727752E-01 4.283618438014E-01
C90 -2.549011727752E-01 -4.705042013272E-01 -4.283618438014E-01
C91 -2.722858757384E-03 -1.065628525461E-01 -3.662778296542E-01
H92 -1.468136800470E-01 3.757972568355E-02 -3.642085470478E-01
C93 6.211886952867E-02 1.150276517832E-01 -3.261103834784E-01
H94 -3.007269043890E-01 -3.997143470779E-02 4.641819418248E-01
C95 -4.319797853657E-01 -4.893123062008E-02 -4.448406516613E-01
H96 3.504242473324E-01 -4.545010963664E-01 -3.131379068833E-01
C97 3.688924440367E-01 -2.843051321709E-01 -3.205256283430E-01
C98 1.065628525461E-01 2.722858757384E-03 3.662778296542E-01
H99 -3.757972568355E-02 1.468136800470E-01 3.642085470478E-01
C100 -1.150276517832E-01 -6.211886952867E-02 3.261103834784E-01
H101 3.997143470779E-02 3.007269043890E-01 -4.641819418248E-01
C102 4.893123062008E-02 4.319797853657E-01 4.448406516613E-01
H103 4.545010963664E-01 -3.504242473324E-01 3.131379068833E-01
C104 2.843051321709E-01 -3.688924440367E-01 3.205256283430E-01
C105 3.930349414826E-01 1.083009602616E-01 4.753732971144E-01
C106 -4.103775126116E-01 3.415821613918E-01 3.506370716311E-01
C107 -1.083009602616E-01 -3.930349414826E-01 -4.753732971144E-01
C108 -3.415821613918E-01 4.103775126116E-01 -3.506370716311E-01
H109 3.757972568355E-02 -1.468136800470E-01 -3.642085470478E-01
C110 1.150276517832E-01 6.211886952867E-02 -3.261103834784E-01
H111 1.557432378206E-01 2.481631567141E-01 -2.925454641950E-01
H112 -3.692631977049E-01 6.620066725191E-02 -4.815016968135E-01
C113 4.486352544556E-01 -1.366560102721E-01 -3.673847385392E-01
H114 2.744384699738E-01 -3.555132044025E-01 -2.604808662680E-01
H115 1.468136800470E-01 -3.757972568355E-02 3.642085470478E-01
C116 -6.211886952867E-02 -1.150276517832E-01 3.261103834784E-01
H117 -2.481631567141E-01 -1.557432378206E-01 2.925454641950E-01
H118 -6.620066725191E-02 3.692631977049E-01 4.815016968135E-01
C119 1.366560102721E-01 -4.486352544556E-01 3.673847385392E-01
H120 3.555132044025E-01 -2.744384699738E-01 2.604808662680E-01
H121 3.007269043890E-01 3.997143470779E-02 -4.641819418248E-01
C122 4.319797853657E-01 4.893123062008E-02 4.448406516613E-01
H123 -3.504242473324E-01 4.545010963664E-01 3.131379068833E-01
C124 -3.688924440367E-01 2.843051321709E-01 3.205256283430E-01
H125 -3.997143470779E-02 -3.007269043890E-01 4.641819418248E-01
C126 -4.893123062008E-02 -4.319797853657E-01 -4.448406516613E-01
H127 -4.545010963664E-01 3.504242473324E-01 -3.131379068833E-01
C128 -2.843051321709E-01 3.688924440367E-01 -3.205256283430E-01
H129 2.481631567141E-01 1.557432378206E-01 -2.925454641950E-01
H130 4.190939102452E-01 -8.924992602765E-02 -3.439442171324E-01
H131 -1.557432378206E-01 -2.481631567141E-01 2.925454641950E-01
H132 8.924992602765E-02 -4.190939102452E-01 3.439442171324E-01
H133 3.692631977049E-01 -6.620066725191E-02 4.815016968135E-01
C134 -4.486352544556E-01 1.366560102721E-01 3.673847385392E-01
H135 -2.744384699738E-01 3.555132044025E-01 2.604808662680E-01
H136 6.620066725191E-02 -3.692631977049E-01 -4.815016968135E-01
C137 -1.366560102721E-01 4.486352544556E-01 -3.673847385392E-01
H138 -3.555132044025E-01 2.744384699738E-01 -2.604808662680E-01
H139 -4.190939102452E-01 8.924992602765E-02 3.439442171324E-01
H140 -8.924992602765E-02 4.190939102452E-01 -3.439442171324E-01


#===END
