###############################################################
#
#primitive cell cif file
#
###############################################################

negm32_data

_symmetry_space_group_name_H-M 'P 1'
_cell_length_a      13.86596031
_cell_length_b      13.86596031
_cell_length_c      14.21100000
_cell_angle_alpha   90.000000
_cell_angle_beta    90.000000
_cell_angle_gamma   150.032293

loop_
_atom_site_label
_atom_site_fract_x
_atom_site_fract_y
_atom_site_fract_z
C1 2.739828151129E-02 -2.739828151129E-02 0.000000000000E+00
C2 -8.954862644313E-02 -1.958810587055E-01 4.974878579080E-02
C3 1.958810587055E-01 8.954862644313E-02 -4.974878579080E-02
C4 -2.739828151129E-02 2.739828151129E-02 0.000000000000E+00
C5 -2.663014055859E-01 -3.200368375218E-01 8.829084213630E-02
C6 -2.555811526216E-02 -2.407840382271E-01 7.308557676040E-02
C7 3.200368375218E-01 2.663014055859E-01 -8.829084213630E-02
C8 2.407840382271E-01 2.555811526216E-02 -7.308557676040E-02
C9 8.954862644313E-02 1.958810587055E-01 -4.974878579080E-02
C10 -1.958810587055E-01 -8.954862644313E-02 4.974878579080E-02
C11 -3.200368375218E-01 -2.663014055859E-01 8.829084213630E-02
C12 -3.933834787152E-01 -4.972296562154E-01 1.336549237482E-01
C13 -1.044054166411E-01 -3.898062302398E-01 2.882965360974E-02
C14 1.021633337603E-01 -1.447546146568E-01 1.476931601418E-01
C15 2.663014055859E-01 3.200368375218E-01 -8.829084213630E-02
C16 4.972296562154E-01 3.933834787152E-01 -1.336549237482E-01
C17 3.898062302398E-01 1.044054166411E-01 -2.882965360974E-02
C18 1.447546146568E-01 -1.021633337603E-01 -1.476931601418E-01
C19 2.555811526216E-02 2.407840382271E-01 -7.308557676040E-02
C20 -2.407840382271E-01 -2.555811526216E-02 7.308557676040E-02
C21 -4.972296562154E-01 -3.933834787152E-01 1.336549237482E-01
H22 -3.529586126740E-01 4.626535283906E-01 1.360727783427E-01
C23 4.377496472920E-01 3.848564150492E-01 1.736211687209E-01
H24 -2.032756018233E-01 -4.653245511617E-01 -2.927031346323E-02
C25 -5.733689897461E-02 -4.414407155068E-01 5.845298922117E-02
H26 1.626841640836E-01 -3.042551457095E-02 1.833553719180E-01
C27 1.523413773147E-01 -1.937458418742E-01 1.766712753994E-01
C28 3.933834787152E-01 4.972296562154E-01 -1.336549237482E-01
H29 -4.626535283906E-01 3.529586126740E-01 -1.360727783427E-01
C30 -3.848564150492E-01 -4.377496472920E-01 -1.736211687209E-01
H31 4.653245511617E-01 2.032756018233E-01 2.927031346323E-02
C32 4.414407155068E-01 5.733689897461E-02 -5.845298922117E-02
H33 3.042551457095E-02 -1.626841640836E-01 -1.833553719180E-01
C34 1.937458418742E-01 -1.523413773147E-01 -1.766712753994E-01
C35 1.044054166411E-01 3.898062302398E-01 -2.882965360974E-02
C36 -1.021633337603E-01 1.447546146568E-01 -1.476931601418E-01
C37 -3.898062302398E-01 -1.044054166411E-01 2.882965360974E-02
C38 -1.447546146568E-01 1.021633337603E-01 1.476931601418E-01
H39 4.626535283906E-01 -3.529586126740E-01 1.360727783427E-01
C40 3.848564150492E-01 4.377496472920E-01 1.736211687209E-01
H41 3.443695227769E-01 2.520160834251E-01 2.074105341419E-01
H42 -1.215880648594E-01 4.411806524460E-01 2.400974247393E-02
C43 7.215763297397E-02 -3.430449783971E-01 1.321528926713E-01
H44 2.537078891540E-01 -1.150812979147E-01 2.341071130694E-01
H45 3.529586126740E-01 -4.626535283906E-01 -1.360727783427E-01
C46 -4.377496472920E-01 -3.848564150492E-01 -1.736211687209E-01
H47 -2.520160834251E-01 -3.443695227769E-01 -2.074105341419E-01
H48 -4.411806524460E-01 1.215880648594E-01 -2.400974247393E-02
C49 3.430449783971E-01 -7.215763297397E-02 -1.321528926713E-01
H50 1.150812979147E-01 -2.537078891540E-01 -2.341071130694E-01
H51 2.032756018233E-01 4.653245511617E-01 2.927031346323E-02
C52 5.733689897461E-02 4.414407155068E-01 -5.845298922117E-02
H53 -1.626841640836E-01 3.042551457095E-02 -1.833553719180E-01
C54 -1.523413773147E-01 1.937458418742E-01 -1.766712753994E-01
H55 -4.653245511617E-01 -2.032756018233E-01 -2.927031346323E-02
C56 -4.414407155068E-01 -5.733689897461E-02 5.845298922117E-02
H57 -3.042551457095E-02 1.626841640836E-01 1.833553719180E-01
C58 -1.937458418742E-01 1.523413773147E-01 1.766712753994E-01
H59 2.520160834251E-01 3.443695227769E-01 2.074105341419E-01
H60 1.090479685688E-01 -3.834985774475E-01 1.546835709640E-01
H61 -3.443695227769E-01 -2.520160834251E-01 -2.074105341419E-01
H62 3.834985774475E-01 -1.090479685688E-01 -1.546835709640E-01
H63 1.215880648594E-01 -4.411806524460E-01 -2.400974247393E-02
C64 -7.215763297397E-02 3.430449783971E-01 -1.321528926713E-01
H65 -2.537078891540E-01 1.150812979147E-01 -2.341071130694E-01
H66 4.411806524460E-01 -1.215880648594E-01 2.400974247393E-02
C67 -3.430449783971E-01 7.215763297397E-02 1.321528926713E-01
H68 -1.150812979147E-01 2.537078891540E-01 2.341071130694E-01
H69 -1.090479685688E-01 3.834985774475E-01 -1.546835709640E-01
H70 -3.834985774475E-01 1.090479685688E-01 1.546835709640E-01
C71 4.726017184887E-01 -4.726017184887E-01 -5.000000000000E-01
C72 -4.104513735569E-01 -3.041189412945E-01 -4.502512142092E-01
C73 3.041189412945E-01 4.104513735569E-01 4.502512142092E-01
C74 -4.726017184887E-01 4.726017184887E-01 -5.000000000000E-01
C75 -2.336985944141E-01 -1.799631624782E-01 -4.117091578637E-01
C76 -4.744418847378E-01 -2.592159617729E-01 -4.269144232396E-01
C77 1.799631624782E-01 2.336985944141E-01 4.117091578637E-01
C78 2.592159617729E-01 4.744418847378E-01 4.269144232396E-01
C79 4.104513735569E-01 3.041189412945E-01 4.502512142092E-01
C80 -3.041189412945E-01 -4.104513735569E-01 -4.502512142092E-01
C81 -1.799631624782E-01 -2.336985944141E-01 -4.117091578637E-01
C82 -1.066165212848E-01 -2.770343784607E-03 -3.663450762518E-01
C83 -3.955945833589E-01 -1.101937697602E-01 -4.711703463903E-01
C84 3.978366662397E-01 -3.552453853432E-01 -3.523068398582E-01
C85 2.336985944141E-01 1.799631624782E-01 4.117091578637E-01
C86 2.770343784606E-03 1.066165212848E-01 3.663450762518E-01
C87 1.101937697602E-01 3.955945833589E-01 4.711703463903E-01
C88 3.552453853432E-01 -3.978366662397E-01 3.523068398582E-01
C89 4.744418847378E-01 2.592159617729E-01 4.269144232396E-01
C90 -2.592159617729E-01 -4.744418847378E-01 -4.269144232396E-01
C91 -2.770343784607E-03 -1.066165212848E-01 -3.663450762518E-01
H92 -1.470413873260E-01 3.734647160939E-02 -3.639272216573E-01
C93 6.225035270804E-02 1.151435849508E-01 -3.263788312792E-01
H94 -2.967243981767E-01 -3.467544883834E-02 4.707296865368E-01
C95 -4.426631010254E-01 -5.855928449316E-02 -4.415470107788E-01
H96 3.373158359164E-01 -4.695744854290E-01 -3.166446280820E-01
C97 3.476586226853E-01 -3.062541581258E-01 -3.233287246006E-01
C98 1.066165212848E-01 2.770343784607E-03 3.663450762518E-01
H99 -3.734647160939E-02 1.470413873260E-01 3.639272216573E-01
C100 -1.151435849508E-01 -6.225035270803E-02 3.263788312791E-01
H101 3.467544883834E-02 2.967243981767E-01 -4.707296865368E-01
C102 5.855928449316E-02 4.426631010254E-01 4.415470107788E-01
H103 4.695744854290E-01 -3.373158359164E-01 3.166446280820E-01
C104 3.062541581258E-01 -3.476586226853E-01 3.233287246006E-01
C105 3.955945833589E-01 1.101937697602E-01 4.711703463903E-01
C106 -3.978366662397E-01 3.552453853432E-01 3.523068398582E-01
C107 -1.101937697602E-01 -3.955945833589E-01 -4.711703463903E-01
C108 -3.552453853432E-01 3.978366662397E-01 -3.523068398582E-01
H109 3.734647160939E-02 -1.470413873260E-01 -3.639272216573E-01
C110 1.151435849508E-01 6.225035270803E-02 -3.263788312792E-01
H111 1.556304772231E-01 2.479839165749E-01 -2.925894658581E-01
H112 -3.784119351406E-01 5.881934755396E-02 -4.759902575261E-01
C113 4.278423670260E-01 -1.569550216029E-01 -3.678471073287E-01
H114 2.462921108460E-01 -3.849187020853E-01 -2.658928869306E-01
H115 1.470413873260E-01 -3.734647160939E-02 3.639272216573E-01
C116 -6.225035270804E-02 -1.151435849508E-01 3.263788312791E-01
H117 -2.479839165749E-01 -1.556304772231E-01 2.925894658581E-01
H118 -5.881934755396E-02 3.784119351406E-01 4.759902575261E-01
C119 1.569550216029E-01 -4.278423670260E-01 3.678471073287E-01
H120 3.849187020853E-01 -2.462921108460E-01 2.658928869306E-01
H121 2.967243981767E-01 3.467544883834E-02 -4.707296865368E-01
C122 4.426631010254E-01 5.855928449316E-02 4.415470107788E-01
H123 -3.373158359164E-01 4.695744854290E-01 3.166446280820E-01
C124 -3.476586226853E-01 3.062541581258E-01 3.233287246006E-01
H125 -3.467544883834E-02 -2.967243981767E-01 4.707296865368E-01
C126 -5.855928449316E-02 -4.426631010254E-01 -4.415470107788E-01
H127 -4.695744854290E-01 3.373158359164E-01 -3.166446280820E-01
C128 -3.062541581258E-01 3.476586226853E-01 -3.233287246006E-01
H129 2.479839165749E-01 1.556304772231E-01 -2.925894658581E-01
H130 3.909520314312E-01 -1.165014225525E-01 -3.453164290360E-01
H131 -1.556304772231E-01 -2.479839165749E-01 2.925894658581E-01
H132 1.165014225525E-01 -3.909520314312E-01 3.453164290360E-01
H133 3.784119351406E-01 -5.881934755396E-02 4.759902575261E-01
C134 -4.278423670260E-01 1.569550216029E-01 3.678471073287E-01
H135 -2.462921108460E-01 3.849187020853E-01 2.658928869306E-01
H136 5.881934755396E-02 -3.784119351406E-01 -4.759902575261E-01
C137 -1.569550216029E-01 4.278423670260E-01 -3.678471073287E-01
H138 -3.849187020853E-01 2.462921108460E-01 -2.658928869306E-01
H139 -3.909520314312E-01 1.165014225525E-01 3.453164290360E-01
H140 -1.165014225525E-01 3.909520314312E-01 -3.453164290360E-01


#===END
