###############################################################
#
#primitive cell cif file
#
###############################################################

negm45_data

_symmetry_space_group_name_H-M 'P 1'
_cell_length_a      13.86596031
_cell_length_b      13.86596031
_cell_length_c      14.21100000
_cell_angle_alpha   90.000000
_cell_angle_beta    90.000000
_cell_angle_gamma   150.032293

loop_
_atom_site_label
_atom_site_fract_x
_atom_site_fract_y
_atom_site_fract_z
C1 2.788519384445E-02 -2.788519384445E-02 0.000000000000E+00
C2 -8.949706265274E-02 -1.962032789037E-01 5.057740172479E-02
C3 1.962032789037E-01 8.949706265274E-02 -5.057740172479E-02
C4 -2.693302929758E-02 2.693302929758E-02 0.000000000000E+00
C5 -2.661623490286E-01 -3.193689330269E-01 8.911831927570E-02
C6 -2.637416081339E-02 -2.420032164600E-01 7.478000149272E-02
C7 3.193689330269E-01 2.661623490286E-01 -8.911831927570E-02
C8 2.420032164600E-01 2.637416081339E-02 -7.478000149272E-02
C9 8.965059760092E-02 1.957166904063E-01 -4.865281361544E-02
C10 -1.957166904063E-01 -8.965059760092E-02 4.865281361544E-02
C11 -3.198918159343E-01 -2.656232570110E-01 8.797613308500E-02
C12 -3.941530678529E-01 -4.960217109228E-01 1.357464180903E-01
C13 -1.051520414057E-01 -3.911577984755E-01 3.074671996883E-02
C14 1.006679353393E-01 -1.465924674143E-01 1.497545782147E-01
C15 2.656232570110E-01 3.198918159343E-01 -8.797613308500E-02
C16 4.960217109228E-01 3.941530678529E-01 -1.357464180903E-01
C17 3.911577984755E-01 1.051520414057E-01 -3.074671996883E-02
C18 1.465924674143E-01 -1.006679353393E-01 -1.497545782147E-01
C19 2.513126507369E-02 2.400045220156E-01 -7.176262919787E-02
C20 -2.400045220156E-01 -2.513126507369E-02 7.176262919787E-02
C21 -4.955919420869E-01 -3.898378900863E-01 1.337749912104E-01
H22 -3.557299379900E-01 4.618770513130E-01 1.386328766619E-01
C23 4.383854063948E-01 3.886363250755E-01 1.763435025522E-01
H24 -2.032742855083E-01 -4.662418351862E-01 -2.770369952129E-02
C25 -5.881440493508E-02 -4.434426500560E-01 6.078168654577E-02
H26 1.620070616444E-01 -3.158190025411E-02 1.851257864252E-01
C27 1.494635508297E-01 -1.967732331193E-01 1.794132160445E-01
C28 3.898378900863E-01 4.955919420869E-01 -1.337749912104E-01
H29 -4.618770513130E-01 3.557299379900E-01 -1.386328766619E-01
C30 -3.886363250755E-01 -4.383854063948E-01 -1.763435025522E-01
H31 4.662418351862E-01 2.032742855083E-01 2.770369952129E-02
C32 4.434426500560E-01 5.881440493508E-02 -6.078168654577E-02
H33 3.158190025411E-02 -1.620070616444E-01 -1.851257864252E-01
C34 1.967732331193E-01 -1.494635508297E-01 -1.794132160445E-01
C35 1.050432312169E-01 3.903724374581E-01 -2.872796496299E-02
C36 -1.018283498923E-01 1.436092373180E-01 -1.467701788541E-01
C37 -3.903724374581E-01 -1.050432312169E-01 2.872796496299E-02
C38 -1.436092373180E-01 1.018283498923E-01 1.467701788541E-01
H39 4.658042318687E-01 -3.478931934411E-01 1.353788832271E-01
C40 3.867713722309E-01 4.427870267563E-01 1.756471734598E-01
H41 3.448098766084E-01 2.562964786031E-01 2.109553890886E-01
H42 -1.224888166214E-01 4.395721378975E-01 2.621317924720E-02
C43 6.947121665938E-02 -3.459987056599E-01 1.349776511666E-01
H44 2.500493784667E-01 -1.186844885066E-01 2.371775479980E-01
H45 3.478931934411E-01 -4.658042318687E-01 -1.353788832271E-01
C46 -4.427870267563E-01 -3.867713722309E-01 -1.756471734598E-01
H47 -2.562964786031E-01 -3.448098766084E-01 -2.109553890886E-01
H48 -4.395721378975E-01 1.224888166214E-01 -2.621317924720E-02
C49 3.459987056599E-01 -6.947121665938E-02 -1.349776511666E-01
H50 1.186844885066E-01 -2.500493784667E-01 -2.371775479980E-01
H51 2.031787141927E-01 4.659668237850E-01 2.978267448561E-02
C52 6.093780323738E-02 4.441087219088E-01 -6.070378455436E-02
H53 -1.632194875244E-01 2.800845134029E-02 -1.811506151918E-01
C54 -1.488467061148E-01 1.948269369494E-01 -1.781419948367E-01
H55 -4.659668237850E-01 -2.031787141927E-01 -2.978267448561E-02
C56 -4.441087219088E-01 -6.093780323738E-02 6.070378455436E-02
H57 -2.800845134029E-02 1.632194875244E-01 1.811506151918E-01
C58 -1.948269369494E-01 1.488467061148E-01 1.781419948367E-01
H59 2.555618084802E-01 3.518908170164E-01 2.102858501994E-01
H60 1.057160298439E-01 -3.869881699716E-01 1.577614075115E-01
H61 -3.518908170164E-01 -2.555618084802E-01 -2.102858501994E-01
H62 3.869881699716E-01 -1.057160298439E-01 -1.577614075115E-01
H63 1.258875148027E-01 -4.373608912437E-01 -2.749728295152E-02
C64 -6.660377583816E-02 3.463744149291E-01 -1.353924404575E-01
H65 -2.491664892409E-01 1.163803318420E-01 -2.360951305579E-01
H66 4.373608912437E-01 -1.258875148027E-01 2.749728295152E-02
C67 -3.463744149291E-01 6.660377583816E-02 1.353924404575E-01
H68 -1.163803318420E-01 2.491664892409E-01 2.360951305579E-01
H69 -1.007881093515E-01 3.888407236756E-01 -1.597440037665E-01
H70 -3.888407236756E-01 1.007881093515E-01 1.597440037665E-01
C71 4.730669707024E-01 -4.730669707024E-01 -5.000000000000E-01
C72 -4.103494023991E-01 -3.042833095937E-01 -4.513471863846E-01
C73 3.042833095937E-01 4.103494023991E-01 4.513471863846E-01
C74 -4.721148061555E-01 4.721148061555E-01 -5.000000000000E-01
C75 -2.343767429890E-01 -1.801081840657E-01 -4.120238669150E-01
C76 -4.748687349263E-01 -2.599954779844E-01 -4.282373708021E-01
C77 1.801081840657E-01 2.343767429890E-01 4.120238669150E-01
C78 2.599954779844E-01 4.748687349263E-01 4.282373708021E-01
C79 4.105029373473E-01 3.037967210963E-01 4.494225982752E-01
C80 -3.037967210963E-01 -4.105029373473E-01 -4.494225982752E-01
C81 -1.806310669731E-01 -2.338376509714E-01 -4.108816807243E-01
C82 -1.101621099137E-01 -4.408057913128E-03 -3.662250087896E-01
C83 -3.949567687831E-01 -1.096275625419E-01 -4.712720350370E-01
C84 3.981716501077E-01 -3.563907626820E-01 -3.532298211459E-01
C85 2.338376509714E-01 1.806310669731E-01 4.108816807243E-01
C86 4.408057913128E-03 1.101621099137E-01 3.662250087896E-01
C87 1.096275625419E-01 3.949567687831E-01 4.712720350370E-01
C88 3.563907626820E-01 -3.981716501077E-01 3.532298211459E-01
C89 4.736258391866E-01 2.579967835400E-01 4.252199985073E-01
C90 -2.579967835400E-01 -4.736258391866E-01 -4.252199985073E-01
C91 -3.978289077213E-03 -1.058469321471E-01 -3.642535819097E-01
H92 -1.521068065589E-01 3.419576813130E-02 -3.646211167729E-01
C93 5.721297324373E-02 1.132286277691E-01 -3.243528265402E-01
H94 -2.968212858073E-01 -3.403317621505E-02 4.702173255144E-01
C95 -4.390621967626E-01 -5.589127809122E-02 -4.392962154456E-01
H96 3.367805124756E-01 -4.719915486597E-01 -3.188493848082E-01
C97 3.511532938852E-01 -3.051730630506E-01 -3.218580051633E-01
C98 1.058469321471E-01 3.978289077213E-03 3.642535819097E-01
H99 -3.419576813130E-02 1.521068065589E-01 3.646211167729E-01
C100 -1.132286277691E-01 -5.721297324373E-02 3.243528265402E-01
H101 3.403317621505E-02 2.968212858073E-01 -4.702173255144E-01
C102 5.589127809122E-02 4.390621967626E-01 4.392962154456E-01
H103 4.719915486597E-01 -3.367805124756E-01 3.188493848082E-01
C104 3.051730630506E-01 -3.511532938852E-01 3.218580051633E-01
C105 3.948479585943E-01 1.088422015245E-01 4.692532800312E-01
C106 -3.993320646607E-01 3.534075325857E-01 3.502454217853E-01
C107 -1.088422015245E-01 -3.948479585943E-01 -4.692532800312E-01
C108 -3.534075325857E-01 3.993320646607E-01 -3.502454217853E-01
H109 3.812294868696E-02 -1.442700620100E-01 -3.613671233381E-01
C110 1.113636749245E-01 6.161459360518E-02 -3.236564974478E-01
H111 1.481091829836E-01 2.444381915198E-01 -2.897141498006E-01
H112 -3.741124851973E-01 6.263910875632E-02 -4.725027170485E-01
C113 4.333962241618E-01 -1.536255850709E-01 -3.646075595425E-01
H114 2.508335107591E-01 -3.836196681580E-01 -2.639048694421E-01
H115 1.442700620100E-01 -3.812294868696E-02 3.613671233381E-01
C116 -6.161459360518E-02 -1.113636749245E-01 3.236564974478E-01
H117 -2.444381915198E-01 -1.481091829836E-01 2.897141498006E-01
H118 -6.263910875632E-02 3.741124851973E-01 4.725027170485E-01
C119 1.536255850709E-01 -4.333962241618E-01 3.646075595425E-01
H120 3.836196681580E-01 -2.508335107591E-01 2.639048694421E-01
H121 2.967257144917E-01 3.375816481376E-02 -4.722963004787E-01
C122 4.411855950649E-01 5.655734994401E-02 4.392183134542E-01
H123 -3.379929383556E-01 4.684180997459E-01 3.148742135748E-01
C124 -3.505364491703E-01 3.032267668807E-01 3.205867839555E-01
H125 -3.375816481376E-02 -2.967257144917E-01 4.722963004787E-01
C126 -5.655734994401E-02 -4.411855950649E-01 -4.392183134542E-01
H127 -4.684180997459E-01 3.379929383556E-01 -3.148742135748E-01
C128 -3.032267668807E-01 3.505364491703E-01 -3.205867839555E-01
H129 2.437035213969E-01 1.551901233916E-01 -2.890446109114E-01
H130 3.992118906485E-01 -1.111592763244E-01 -3.402559962335E-01
H131 -1.551901233916E-01 -2.437035213969E-01 2.890446109114E-01
H132 1.111592763244E-01 -3.992118906485E-01 3.402559962335E-01
H133 3.775111833786E-01 -6.042786210245E-02 4.737868207528E-01
C134 -4.305287833406E-01 1.540012943401E-01 3.650223488334E-01
H135 -2.499506215333E-01 3.813155114934E-01 2.628224520020E-01
H136 6.042786210245E-02 -3.775111833786E-01 -4.737868207528E-01
C137 -1.540012943401E-01 4.305287833406E-01 -3.650223488334E-01
H138 -3.813155114934E-01 2.499506215333E-01 -2.628224520020E-01
H139 -3.942839701561E-01 1.130118300284E-01 3.422385924885E-01
H140 -1.130118300284E-01 3.942839701561E-01 -3.422385924885E-01


#===END
