###############################################################
#
#primitive cell cif file
#
###############################################################

negm21_data

_symmetry_space_group_name_H-M 'P 1'
_cell_length_a      13.86596031
_cell_length_b      13.86596031
_cell_length_c      14.21100000
_cell_angle_alpha   90.000000
_cell_angle_beta    90.000000
_cell_angle_gamma   150.032293

loop_
_atom_site_label
_atom_site_fract_x
_atom_site_fract_y
_atom_site_fract_z
C1 2.739086209989E-02 -2.739086209989E-02 0.000000000000E+00
C2 -9.069040060950E-02 -1.969776287540E-01 4.885791568004E-02
C3 1.969776287540E-01 9.069040060950E-02 -4.885791568004E-02
C4 -2.739086209989E-02 2.739086209989E-02 0.000000000000E+00
C5 -2.682020620664E-01 -3.219322444472E-01 8.668996850306E-02
C6 -2.619313539335E-02 -2.410258714820E-01 7.348679560003E-02
C7 3.219322444472E-01 2.682020620664E-01 -8.668996850306E-02
C8 2.410258714820E-01 2.619313539335E-02 -7.348679560003E-02
C9 9.069040060950E-02 1.969776287540E-01 -4.885791568004E-02
C10 -1.969776287540E-01 -9.069040060950E-02 4.885791568004E-02
C11 -3.219322444472E-01 -2.682020620664E-01 8.668996850306E-02
C12 -3.955965518679E-01 -4.994206784222E-01 1.317698853386E-01
C13 -1.017455323797E-01 -3.882464753737E-01 2.966357792654E-02
C14 9.751344643827E-02 -1.466520933127E-01 1.500590656542E-01
C15 2.682020620664E-01 3.219322444472E-01 -8.668996850306E-02
C16 4.994206784222E-01 3.955965518679E-01 -1.317698853386E-01
C17 3.882464753737E-01 1.017455323797E-01 -2.966357792654E-02
C18 1.466520933127E-01 -9.751344643827E-02 -1.500590656542E-01
C19 2.619313539335E-02 2.410258714820E-01 -7.348679560003E-02
C20 -2.410258714820E-01 -2.619313539335E-02 7.348679560003E-02
C21 -4.994206784222E-01 -3.955965518679E-01 1.317698853386E-01
H22 -3.552938125598E-01 4.603432790131E-01 1.340404189631E-01
C23 4.355799788948E-01 3.826991013596E-01 1.717734573845E-01
H24 -1.976986625440E-01 -4.627711532239E-01 -2.986951835543E-02
C25 -5.577308691292E-02 -4.400830175141E-01 6.189341032953E-02
H26 1.551035889574E-01 -3.398819584468E-02 1.853881257043E-01
C27 1.465704496392E-01 -1.957886038634E-01 1.816358261117E-01
C28 3.955965518679E-01 4.994206784222E-01 -1.317698853386E-01
H29 -4.603432790131E-01 3.552938125598E-01 -1.340404189631E-01
C30 -3.826991013596E-01 -4.355799788948E-01 -1.717734573845E-01
H31 4.627711532239E-01 1.976986625440E-01 2.986951835543E-02
C32 4.400830175141E-01 5.577308691292E-02 -6.189341032953E-02
H33 3.398819584468E-02 -1.551035889574E-01 -1.853881257043E-01
C34 1.957886038634E-01 -1.465704496392E-01 -1.816358261117E-01
C35 1.017455323797E-01 3.882464753737E-01 -2.966357792654E-02
C36 -9.751344643827E-02 1.466520933127E-01 -1.500590656542E-01
C37 -3.882464753737E-01 -1.017455323797E-01 2.966357792654E-02
C38 -1.466520933127E-01 9.751344643827E-02 1.500590656542E-01
H39 4.603432790131E-01 -3.552938125598E-01 1.340404189631E-01
C40 3.826991013596E-01 4.355799788948E-01 1.717734573845E-01
H41 3.422119282537E-01 2.498732931365E-01 2.055479750432E-01
H42 -1.178433029176E-01 4.434969976816E-01 2.803450077398E-02
C43 6.947722223083E-02 -3.434838971868E-01 1.376738975691E-01
H44 2.448314825531E-01 -1.184220356571E-01 2.405477619855E-01
H45 3.552938125598E-01 -4.603432790131E-01 -1.340404189631E-01
C46 -4.355799788948E-01 -3.826991013596E-01 -1.717734573845E-01
H47 -2.498732931365E-01 -3.422119282537E-01 -2.055479750432E-01
H48 -4.434969976816E-01 1.178433029176E-01 -2.803450077398E-02
C49 3.434838971868E-01 -6.947722223083E-02 -1.376738975691E-01
H50 1.184220356571E-01 -2.448314825531E-01 -2.405477619855E-01
H51 1.976986625440E-01 4.627711532239E-01 2.986951835543E-02
C52 5.577308691292E-02 4.400830175141E-01 -6.189341032953E-02
H53 -1.551035889574E-01 3.398819584468E-02 -1.853881257043E-01
C54 -1.465704496392E-01 1.957886038634E-01 -1.816358261117E-01
H55 -4.627711532239E-01 -1.976986625440E-01 -2.986951835543E-02
C56 -4.400830175141E-01 -5.577308691292E-02 6.189341032953E-02
H57 -3.398819584468E-02 1.551035889574E-01 1.853881257043E-01
C58 -1.957886038634E-01 1.465704496392E-01 1.816358261117E-01
H59 2.498732931365E-01 3.422119282537E-01 2.055479750432E-01
H60 1.053823398094E-01 -3.842343012756E-01 1.620084152787E-01
H61 -3.422119282537E-01 -2.498732931365E-01 -2.055479750432E-01
H62 3.842343012756E-01 -1.053823398094E-01 -1.620084152787E-01
H63 1.178433029176E-01 -4.434969976816E-01 -2.803450077398E-02
C64 -6.947722223083E-02 3.434838971868E-01 -1.376738975691E-01
H65 -2.448314825531E-01 1.184220356571E-01 -2.405477619855E-01
H66 4.434969976816E-01 -1.178433029176E-01 2.803450077398E-02
C67 -3.434838971868E-01 6.947722223083E-02 1.376738975691E-01
H68 -1.184220356571E-01 2.448314825531E-01 2.405477619855E-01
H69 -1.053823398094E-01 3.842343012756E-01 -1.620084152787E-01
H70 -3.842343012756E-01 1.053823398094E-01 1.620084152787E-01
C71 4.726091379001E-01 -4.726091379001E-01 -5.000000000000E-01
C72 -4.093095993905E-01 -3.030223712460E-01 -4.511420843200E-01
C73 3.030223712460E-01 4.093095993905E-01 4.511420843200E-01
C74 -4.726091379001E-01 4.726091379001E-01 -5.000000000000E-01
C75 -2.317979379336E-01 -1.780677555528E-01 -4.133100314969E-01
C76 -4.738068646067E-01 -2.589741285180E-01 -4.265132044000E-01
C77 1.780677555528E-01 2.317979379336E-01 4.133100314969E-01
C78 2.589741285180E-01 4.738068646067E-01 4.265132044000E-01
C79 4.093095993905E-01 3.030223712460E-01 4.511420843200E-01
C80 -3.030223712460E-01 -4.093095993905E-01 -4.511420843200E-01
C81 -1.780677555528E-01 -2.317979379336E-01 -4.133100314969E-01
C82 -1.044034481321E-01 -5.793215777854E-04 -3.682301146614E-01
C83 -3.982544676203E-01 -1.117535246263E-01 -4.703364220735E-01
C84 4.024865535617E-01 -3.533479066873E-01 -3.499409343458E-01
C85 2.317979379336E-01 1.780677555528E-01 4.133100314969E-01
C86 5.793215777852E-04 1.044034481321E-01 3.682301146614E-01
C87 1.117535246263E-01 3.982544676203E-01 4.703364220735E-01
C88 3.533479066873E-01 -4.024865535617E-01 3.499409343458E-01
C89 4.738068646067E-01 2.589741285180E-01 4.265132044000E-01
C90 -2.589741285180E-01 -4.738068646067E-01 -4.265132044000E-01
C91 -5.793215777852E-04 -1.044034481321E-01 -3.682301146614E-01
H92 -1.447061874402E-01 3.965672098688E-02 -3.659595810369E-01
C93 6.442002110525E-02 1.173008986404E-01 -3.282265426155E-01
H94 -3.023013374560E-01 -3.722884677612E-02 4.701304816446E-01
C95 -4.442269130871E-01 -5.991698248586E-02 -4.381065896705E-01
H96 3.448964110426E-01 -4.660118041553E-01 -3.146118742957E-01
C97 3.534295503608E-01 -3.042113961366E-01 -3.183641738883E-01
C98 1.044034481321E-01 5.793215777852E-04 3.682301146614E-01
H99 -3.965672098688E-02 1.447061874402E-01 3.659595810369E-01
C100 -1.173008986404E-01 -6.442002110525E-02 3.282265426155E-01
H101 3.722884677612E-02 3.023013374560E-01 -4.701304816446E-01
C102 5.991698248586E-02 4.442269130871E-01 4.381065896705E-01
H103 4.660118041553E-01 -3.448964110426E-01 3.146118742957E-01
C104 3.042113961366E-01 -3.534295503608E-01 3.183641738883E-01
C105 3.982544676203E-01 1.117535246263E-01 4.703364220735E-01
C106 -4.024865535617E-01 3.533479066873E-01 3.499409343458E-01
C107 -1.117535246263E-01 -3.982544676203E-01 -4.703364220735E-01
C108 -3.533479066873E-01 4.024865535617E-01 -3.499409343458E-01
H109 3.965672098688E-02 -1.447061874402E-01 -3.659595810369E-01
C110 1.173008986404E-01 6.442002110525E-02 -3.282265426155E-01
H111 1.577880717463E-01 2.501267068635E-01 -2.944520249568E-01
H112 -3.821566970824E-01 5.650300231839E-02 -4.719654992260E-01
C113 4.305227777692E-01 -1.565161028132E-01 -3.623261024309E-01
H114 2.551685174469E-01 -3.815779643429E-01 -2.594522380145E-01
H115 1.447061874402E-01 -3.965672098688E-02 3.659595810369E-01
C116 -6.442002110525E-02 -1.173008986404E-01 3.282265426155E-01
H117 -2.501267068635E-01 -1.577880717463E-01 2.944520249568E-01
H118 -5.650300231839E-02 3.821566970824E-01 4.719654992260E-01
C119 1.565161028132E-01 -4.305227777692E-01 3.623261024309E-01
H120 3.815779643429E-01 -2.551685174469E-01 2.594522380145E-01
H121 3.023013374560E-01 3.722884677612E-02 -4.701304816446E-01
C122 4.442269130871E-01 5.991698248586E-02 4.381065896705E-01
H123 -3.448964110426E-01 4.660118041553E-01 3.146118742957E-01
C124 -3.534295503608E-01 3.042113961366E-01 3.183641738883E-01
H125 -3.722884677612E-02 -3.023013374560E-01 4.701304816446E-01
C126 -5.991698248586E-02 -4.442269130871E-01 -4.381065896705E-01
H127 -4.660118041553E-01 3.448964110426E-01 -3.146118742957E-01
C128 -3.042113961366E-01 3.534295503608E-01 -3.183641738883E-01
H129 2.501267068635E-01 1.577880717463E-01 -2.944520249568E-01
H130 3.946176601906E-01 -1.157656987244E-01 -3.379915847213E-01
H131 -1.577880717463E-01 -2.501267068635E-01 2.944520249568E-01
H132 1.157656987244E-01 -3.946176601906E-01 3.379915847213E-01
H133 3.821566970824E-01 -5.650300231839E-02 4.719654992260E-01
C134 -4.305227777692E-01 1.565161028132E-01 3.623261024309E-01
H135 -2.551685174469E-01 3.815779643429E-01 2.594522380145E-01
H136 5.650300231839E-02 -3.821566970824E-01 -4.719654992260E-01
C137 -1.565161028132E-01 4.305227777692E-01 -3.623261024309E-01
H138 -3.815779643429E-01 2.551685174469E-01 -2.594522380145E-01
H139 -3.946176601906E-01 1.157656987244E-01 3.379915847213E-01
H140 -1.157656987244E-01 3.946176601906E-01 -3.379915847213E-01


#===END
