###############################################################
#
#primitive cell cif file
#
###############################################################

negm40_data

_symmetry_space_group_name_H-M 'P 1'
_cell_length_a      13.86596031
_cell_length_b      13.86596031
_cell_length_c      14.21100000
_cell_angle_alpha   90.000000
_cell_angle_beta    90.000000
_cell_angle_gamma   150.032293

loop_
_atom_site_label
_atom_site_fract_x
_atom_site_fract_y
_atom_site_fract_z
C1 2.745993608078E-02 -2.745993608078E-02 0.000000000000E+00
C2 -8.723853005674E-02 -1.937444318894E-01 5.131760405665E-02
C3 1.937444318894E-01 8.723853005674E-02 -5.131760405665E-02
C4 -2.745993608078E-02 2.745993608078E-02 0.000000000000E+00
C5 -2.636202203563E-01 -3.173794070206E-01 9.021962310759E-02
C6 -2.342439743908E-02 -2.389608258803E-01 7.491829285814E-02
C7 3.173794070206E-01 2.636202203563E-01 -9.021962310759E-02
C8 2.389608258803E-01 2.342439743908E-02 -7.491829285814E-02
C9 8.723853005674E-02 1.937444318894E-01 -5.131760405665E-02
C10 -1.937444318894E-01 -8.723853005674E-02 5.131760405665E-02
C11 -3.173794070206E-01 -2.636202203563E-01 9.021962310759E-02
C12 -3.915355912626E-01 -4.953727790225E-01 1.349245794601E-01
C13 -1.026593608418E-01 -3.881486283406E-01 3.044358037992E-02
C14 1.024620515940E-01 -1.451204557050E-01 1.502364281478E-01
C15 2.636202203563E-01 3.173794070206E-01 -9.021962310759E-02
C16 4.953727790225E-01 3.915355912626E-01 -1.349245794601E-01
C17 3.881486283406E-01 1.026593608418E-01 -3.044358037992E-02
C18 1.451204557050E-01 -1.024620515940E-01 -1.502364281478E-01
C19 2.342439743908E-02 2.389608258803E-01 -7.491829285814E-02
C20 -2.389608258803E-01 -2.342439743908E-02 7.491829285814E-02
C21 -4.953727790225E-01 -3.915355912626E-01 1.349245794601E-01
H22 -3.512666383058E-01 4.643585235348E-01 1.373246789472E-01
C23 4.381304771394E-01 3.852484974335E-01 1.736026957367E-01
H24 -2.000828296169E-01 -4.621256738344E-01 -2.822157642995E-02
C25 -5.868961956869E-02 -4.426452726665E-01 6.070404706917E-02
H26 1.641726745780E-01 -3.014044138137E-02 1.860136353872E-01
C27 1.490453218227E-01 -1.974429608409E-01 1.800928246270E-01
C28 3.915355912626E-01 4.953727790225E-01 -1.349245794601E-01
H29 -4.643585235348E-01 3.512666383058E-01 -1.373246789472E-01
C30 -3.852484974335E-01 -4.381304771394E-01 -1.736026957367E-01
H31 4.621256738344E-01 2.000828296169E-01 2.822157642995E-02
C32 4.426452726665E-01 5.868961956869E-02 -6.070404706917E-02
H33 3.014044138137E-02 -1.641726745780E-01 -1.860136353872E-01
C34 1.974429608409E-01 -1.490453218227E-01 -1.800928246270E-01
C35 1.026593608418E-01 3.881486283406E-01 -3.044358037992E-02
C36 -1.024620515940E-01 1.451204557050E-01 -1.502364281478E-01
C37 -3.881486283406E-01 -1.026593608418E-01 3.044358037992E-02
C38 -1.451204557050E-01 1.024620515940E-01 1.502364281478E-01
H39 4.643585235348E-01 -3.512666383058E-01 1.373246789472E-01
C40 3.852484974335E-01 4.381304771394E-01 1.736026957367E-01
H41 3.434405478724E-01 2.511241877889E-01 2.063296512815E-01
H42 -1.232049747923E-01 4.399586336517E-01 2.598219996798E-02
C43 6.791190813170E-02 -3.472653404257E-01 1.355034234757E-01
H44 2.486400257089E-01 -1.206360835778E-01 2.382140535503E-01
H45 3.512666383058E-01 -4.643585235348E-01 -1.373246789472E-01
C46 -4.381304771394E-01 -3.852484974335E-01 -1.736026957367E-01
H47 -2.511241877889E-01 -3.434405478724E-01 -2.063296512815E-01
H48 -4.399586336517E-01 1.232049747923E-01 -2.598219996798E-02
C49 3.472653404257E-01 -6.791190813170E-02 -1.355034234757E-01
H50 1.206360835778E-01 -2.486400257089E-01 -2.382140535503E-01
H51 2.000828296169E-01 4.621256738344E-01 2.822157642995E-02
C52 5.868961956869E-02 4.426452726665E-01 -6.070404706917E-02
H53 -1.641726745780E-01 3.014044138137E-02 -1.860136353872E-01
C54 -1.490453218227E-01 1.974429608409E-01 -1.800928246270E-01
H55 -4.621256738344E-01 -2.000828296169E-01 -2.822157642995E-02
C56 -4.426452726665E-01 -5.868961956869E-02 6.070404706917E-02
H57 -3.014044138137E-02 1.641726745780E-01 1.860136353872E-01
C58 -1.974429608409E-01 1.490453218227E-01 1.800928246270E-01
H59 2.511241877889E-01 3.434405478724E-01 2.063296512815E-01
H60 1.020371848793E-01 -3.902532307429E-01 1.585682392511E-01
H61 -3.434405478724E-01 -2.511241877889E-01 -2.063296512815E-01
H62 3.902532307429E-01 -1.020371848793E-01 -1.585682392511E-01
H63 1.232049747923E-01 -4.399586336517E-01 -2.598219996798E-02
C64 -6.791190813170E-02 3.472653404257E-01 -1.355034234757E-01
H65 -2.486400257089E-01 1.206360835778E-01 -2.382140535503E-01
H66 4.399586336517E-01 -1.232049747923E-01 2.598219996798E-02
C67 -3.472653404257E-01 6.791190813170E-02 1.355034234757E-01
H68 -1.206360835778E-01 2.486400257089E-01 2.382140535503E-01
H69 -1.020371848793E-01 3.902532307429E-01 -1.585682392511E-01
H70 -3.902532307429E-01 1.020371848793E-01 1.585682392511E-01
C71 4.726417129387E-01 -4.726417129387E-01 -5.000000000000E-01
C72 -4.080908698031E-01 -3.018244625794E-01 -4.520873887164E-01
C73 3.018244625794E-01 4.080908698031E-01 4.520873887164E-01
C74 -4.726417129387E-01 4.726417129387E-01 -5.000000000000E-01
C75 -2.318346143167E-01 -1.781186580593E-01 -4.131251707469E-01
C76 -4.719189715520E-01 -2.569530874048E-01 -4.283756621675E-01
C77 1.781186580593E-01 2.318346143167E-01 4.131251707469E-01
C78 2.569530874048E-01 4.719189715520E-01 4.283756621675E-01
C79 4.080908698031E-01 3.018244625794E-01 4.520873887164E-01
C80 -3.018244625794E-01 -4.080908698031E-01 -4.520873887164E-01
C81 -1.781186580593E-01 -2.318346143167E-01 -4.131251707469E-01
C82 -1.075446333233E-01 -3.759126012792E-03 -3.654031701594E-01
C83 -3.924640882192E-01 -1.066183924071E-01 -4.709688954481E-01
C84 3.999657663624E-01 -3.549187509727E-01 -3.537116710790E-01
C85 2.318346143167E-01 1.781186580593E-01 4.131251707469E-01
C86 3.759126012792E-03 1.075446333233E-01 3.654031701594E-01
C87 1.066183924071E-01 3.924640882192E-01 4.709688954481E-01
C88 3.549187509727E-01 -3.999657663624E-01 3.537116710790E-01
C89 4.719189715520E-01 2.569530874048E-01 4.283756621675E-01
C90 -2.569530874048E-01 -4.719189715520E-01 -4.283756621675E-01
C91 -3.759126012792E-03 -1.075446333233E-01 -3.654031701594E-01
H92 -1.476435068747E-01 3.667724035306E-02 -3.633129190583E-01
C93 5.695804398831E-02 1.098408001272E-01 -3.216120197247E-01
H94 -2.936298299158E-01 -2.991701486324E-02 4.707352024231E-01
C95 -4.389374113962E-01 -5.509390070168E-02 -4.392185759690E-01
H96 3.389461254093E-01 -4.705500897870E-01 -3.197372337702E-01
C97 3.507350648782E-01 -3.058427907722E-01 -3.225376137457E-01
C98 1.075446333233E-01 3.759126012792E-03 3.654031701594E-01
H99 -3.667724035306E-02 1.476435068747E-01 3.633129190583E-01
C100 -1.098408001272E-01 -5.695804398831E-02 3.216120197247E-01
H101 2.991701486324E-02 2.936298299158E-01 -4.707352024231E-01
C102 5.509390070168E-02 4.389374113962E-01 4.392185759690E-01
H103 4.705500897870E-01 -3.389461254093E-01 3.197372337702E-01
C104 3.058427907722E-01 -3.507350648782E-01 3.225376137457E-01
C105 3.924640882192E-01 1.066183924071E-01 4.709688954481E-01
C106 -3.999657663624E-01 3.549187509727E-01 3.537116710790E-01
C107 -1.066183924071E-01 -3.924640882192E-01 -4.709688954481E-01
C108 -3.549187509727E-01 3.999657663624E-01 -3.537116710790E-01
H109 3.667724035306E-02 -1.476435068747E-01 -3.633129190583E-01
C110 1.098408001272E-01 5.695804398831E-02 -3.216120197247E-01
H111 1.467398542477E-01 2.392659007057E-01 -2.850884119935E-01
H112 -3.748286433682E-01 6.302560451047E-02 -4.722717377693E-01
C113 4.318369156342E-01 -1.548922198367E-01 -3.651333318516E-01
H114 2.494241580013E-01 -3.855712632292E-01 -2.649413749944E-01
H115 1.476435068747E-01 -3.667724035306E-02 3.633129190583E-01
C116 -5.695804398831E-02 -1.098408001272E-01 3.216120197247E-01
H117 -2.392659007057E-01 -1.467398542477E-01 2.850884119935E-01
H118 -6.302560451047E-02 3.748286433682E-01 4.722717377693E-01
C119 1.548922198367E-01 -4.318369156342E-01 3.651333318516E-01
H120 3.855712632292E-01 -2.494241580013E-01 2.649413749944E-01
H121 2.936298299158E-01 2.991701486324E-02 -4.707352024231E-01
C122 4.389374113962E-01 5.509390070168E-02 4.392185759690E-01
H123 -3.389461254093E-01 4.705500897870E-01 3.197372337702E-01
C124 -3.507350648782E-01 3.058427907722E-01 3.225376137457E-01
H125 -2.991701486324E-02 -2.936298299158E-01 4.707352024231E-01
C126 -5.509390070168E-02 -4.389374113962E-01 -4.392185759690E-01
H127 -4.705500897870E-01 3.389461254093E-01 -3.197372337702E-01
C128 -3.058427907722E-01 3.507350648782E-01 -3.225376137457E-01
H129 2.392659007057E-01 1.467398542477E-01 -2.850884119935E-01
H130 3.955330456839E-01 -1.144243370956E-01 -3.410628279730E-01
H131 -1.467398542477E-01 -2.392659007057E-01 2.850884119935E-01
H132 1.144243370956E-01 -3.955330456839E-01 3.410628279730E-01
H133 3.748286433682E-01 -6.302560451047E-02 4.722717377693E-01
C134 -4.318369156342E-01 1.548922198367E-01 3.651333318516E-01
H135 -2.494241580013E-01 3.855712632292E-01 2.649413749944E-01
H136 6.302560451047E-02 -3.748286433682E-01 -4.722717377693E-01
C137 -1.548922198367E-01 4.318369156342E-01 -3.651333318516E-01
H138 -3.855712632292E-01 2.494241580013E-01 -2.649413749944E-01
H139 -3.955330456839E-01 1.144243370956E-01 3.410628279730E-01
H140 -1.144243370956E-01 3.955330456839E-01 -3.410628279730E-01


#===END
