###############################################################
#
#primitive cell cif file
#
###############################################################

negm24_data

_symmetry_space_group_name_H-M 'P 1'
_cell_length_a      13.86596031
_cell_length_b      13.86596031
_cell_length_c      14.21100000
_cell_angle_alpha   90.000000
_cell_angle_beta    90.000000
_cell_angle_gamma   150.032293

loop_
_atom_site_label
_atom_site_fract_x
_atom_site_fract_y
_atom_site_fract_z
C1 2.957271639166E-02 -2.524550675038E-02 2.408780657800E-03
C2 -8.828396606935E-02 -1.947681323348E-01 5.137977141693E-02
C3 1.971518369752E-01 9.086369418432E-02 -4.785044392330E-02
C4 -2.524550675038E-02 2.957271639166E-02 2.408780657800E-03
C5 -2.668031243984E-01 -3.205918529313E-01 8.816477358166E-02
C6 -2.441670596239E-02 -2.398049499283E-01 7.502882524924E-02
C7 3.186688960299E-01 2.649824816412E-01 -8.892967877904E-02
C8 2.422027885473E-01 2.708871992470E-02 -7.151380544135E-02
C9 9.086369418432E-02 1.971518369752E-01 -4.785044392330E-02
C10 -1.947681323348E-01 -8.828396606935E-02 5.137977141693E-02
C11 -3.205918529313E-01 -2.668031243984E-01 8.816477358166E-02
C12 -3.957547150123E-01 -4.995743957108E-01 1.320695548868E-01
C13 -1.044529796624E-01 -3.900611979454E-01 3.153483804208E-02
C14 1.044241978648E-01 -1.427754596526E-01 1.492329205233E-01
C15 2.649824816412E-01 3.186688960299E-01 -8.892967877904E-02
C16 4.920392572989E-01 3.882362429270E-01 -1.374518544139E-01
C17 3.914690379882E-01 1.057422929602E-01 -2.793984688973E-02
C18 1.474262450797E-01 -9.807208736678E-02 -1.472918365455E-01
C19 2.708871992470E-02 2.422027885473E-01 -7.151380544135E-02
C20 -2.398049499283E-01 -2.441670596239E-02 7.502882524924E-02
C21 -4.995743957108E-01 -3.957547150123E-01 1.320695548868E-01
H22 -3.552071576213E-01 4.604486784908E-01 1.347758676021E-01
C23 4.336358252166E-01 3.807615140799E-01 1.704093688944E-01
H24 -2.037227854703E-01 -4.661708796778E-01 -2.648796885152E-02
C25 -5.830649375673E-02 -4.424128183808E-01 6.180942932925E-02
H26 1.669682631330E-01 -2.676905448781E-02 1.840878083340E-01
C27 1.531887412260E-01 -1.928750217139E-01 1.790595417371E-01
C28 3.882362429270E-01 4.920392572989E-01 -1.374518544139E-01
H29 -4.672326046910E-01 3.484159738098E-01 -1.392358922869E-01
C30 -3.946461832264E-01 -4.475366079345E-01 -1.815813071175E-01
H31 4.660377792934E-01 2.027302142308E-01 3.099840515537E-02
C32 4.451385535840E-01 6.144571441574E-02 -5.967604177088E-02
H33 3.282129710659E-02 -1.582582860357E-01 -1.821885932830E-01
C34 1.987251483548E-01 -1.451215157185E-01 -1.784956691442E-01
C35 1.057422929602E-01 3.914690379882E-01 -2.793984688973E-02
C36 -9.807208736678E-02 1.474262450797E-01 -1.472918365455E-01
C37 -3.900611979454E-01 -1.044529796624E-01 3.153483804208E-02
C38 -1.427754596526E-01 1.044241978648E-01 1.492329205233E-01
H39 4.604486784908E-01 -3.552071576213E-01 1.347758676021E-01
C40 3.807615140799E-01 4.336358252166E-01 1.704093688944E-01
H41 3.387456443809E-01 2.465496449822E-01 2.030308147769E-01
H42 -1.230931185972E-01 4.395852232374E-01 2.783595793512E-02
C43 7.127787187793E-02 -3.437586423686E-01 1.355183624058E-01
H44 2.549012928633E-01 -1.137396694192E-01 2.363623685910E-01
H45 3.484159738098E-01 -4.672326046910E-01 -1.392358922869E-01
C46 -4.475366079345E-01 -3.946461832264E-01 -1.815813071175E-01
H47 -2.653086421010E-01 -3.579550492438E-01 -2.182104245111E-01
H48 -4.373478059039E-01 1.252832128269E-01 -2.587450426360E-02
C49 3.486144782204E-01 -6.479712061960E-02 -1.348517292183E-01
H50 1.213251509294E-01 -2.443145748443E-01 -2.369103099649E-01
H51 2.027302142308E-01 4.660377792934E-01 3.099840515537E-02
C52 6.144571441574E-02 4.451385535840E-01 -5.967604177088E-02
H53 -1.582582860357E-01 3.282129710659E-02 -1.821885932830E-01
C54 -1.451215157185E-01 1.987251483548E-01 -1.784956691442E-01
H55 -4.661708796778E-01 -2.037227854703E-01 -2.648796885152E-02
C56 -4.424128183808E-01 -5.830649375673E-02 6.180942932925E-02
H57 -2.676905448781E-02 1.669682631330E-01 1.840878083340E-01
C58 -1.928750217139E-01 1.531887412260E-01 1.790595417371E-01
H59 2.465496449822E-01 3.387456443809E-01 2.030308147769E-01
H60 1.071889000438E-01 -3.849993027534E-01 1.585053873145E-01
H61 -3.579550492438E-01 -2.653086421010E-01 -2.182104245111E-01
H62 3.908295908938E-01 -9.931523915153E-02 -1.590000239635E-01
H63 1.252832128269E-01 -4.373478059039E-01 -2.587450426360E-02
C64 -6.479712061960E-02 3.486144782204E-01 -1.348517292183E-01
H65 -2.443145748443E-01 1.213251509294E-01 -2.369103099649E-01
H66 4.395852232374E-01 -1.230931185972E-01 2.783595793512E-02
C67 -3.437586423686E-01 7.127787187793E-02 1.355183624058E-01
H68 -1.137396694192E-01 2.549012928633E-01 2.363623685910E-01
H69 -9.931523915153E-02 3.908295908938E-01 -1.590000239635E-01
H70 -3.849993027534E-01 1.071889000438E-01 1.585053873145E-01
C71 4.704272836083E-01 -4.747544932496E-01 -4.975912193422E-01
C72 -4.117160339306E-01 -3.052318676652E-01 -4.486202285831E-01
C73 3.028481630248E-01 4.091363058157E-01 4.521495560767E-01
C74 -4.747544932496E-01 4.704272836083E-01 -4.975912193422E-01
C75 -2.331968756016E-01 -1.794081470687E-01 -4.118352264183E-01
C76 -4.755832940376E-01 -2.601950500717E-01 -4.249711747508E-01
C77 1.813311039701E-01 2.350175183588E-01 4.110703212210E-01
C78 2.577972114527E-01 4.729112800753E-01 4.284861945587E-01
C79 4.091363058157E-01 3.028481630248E-01 4.521495560767E-01
C80 -3.052318676652E-01 -4.117160339306E-01 -4.486202285831E-01
C81 -1.794081470687E-01 -2.331968756016E-01 -4.118352264183E-01
C82 -1.042452849877E-01 -4.256042892461E-04 -3.679304451132E-01
C83 -3.955470203376E-01 -1.099388020546E-01 -4.684651619579E-01
C84 3.955758021352E-01 -3.572245403474E-01 -3.507670794767E-01
C85 2.350175183588E-01 1.813311039701E-01 4.110703212210E-01
C86 7.960742701095E-03 1.117637570730E-01 3.625481455861E-01
C87 1.085309620118E-01 3.942577070398E-01 4.720601531103E-01
C88 3.525737549203E-01 -4.019279126332E-01 3.527081634545E-01
C89 4.729112800753E-01 2.577972114527E-01 4.284861945587E-01
C90 -2.601950500717E-01 -4.755832940376E-01 -4.249711747508E-01
C91 -4.256042892459E-04 -1.042452849877E-01 -3.679304451132E-01
H92 -1.447928423787E-01 3.955132150924E-02 -3.652241323979E-01
C93 6.636417478341E-02 1.192384859201E-01 -3.295906311056E-01
H94 -2.962772145297E-01 -3.382912032217E-02 4.735120311485E-01
C95 -4.416935062433E-01 -5.758718161921E-02 -4.381905706707E-01
H96 3.330317368670E-01 -4.732309455122E-01 -3.159121916660E-01
C97 3.468112587740E-01 -3.071249782861E-01 -3.209404582629E-01
C98 1.117637570730E-01 7.960742701095E-03 3.625481455861E-01
H99 -3.276739530901E-02 1.515840261902E-01 3.607641077131E-01
C100 -1.053538167736E-01 -5.246339206550E-02 3.184186928825E-01
H101 3.396222070664E-02 2.972697857692E-01 -4.690015948446E-01
C102 5.486144641602E-02 4.385542855843E-01 4.403239582291E-01
H103 4.671787028934E-01 -3.417417139643E-01 3.178114067170E-01
C104 3.012748516452E-01 -3.548784842815E-01 3.215043308558E-01
C105 3.942577070398E-01 1.085309620118E-01 4.720601531103E-01
C106 -4.019279126332E-01 3.525737549203E-01 3.527081634545E-01
C107 -1.099388020546E-01 -3.955470203376E-01 -4.684651619579E-01
C108 -3.572245403474E-01 3.955758021352E-01 -3.507670794767E-01
H109 3.955132150924E-02 -1.447928423787E-01 -3.652241323979E-01
C110 1.192384859201E-01 6.636417478341E-02 -3.295906311056E-01
H111 1.612543556191E-01 2.534503550178E-01 -2.969691852231E-01
H112 -3.769068814028E-01 6.041477676264E-02 -4.721640420649E-01
C113 4.287221281221E-01 -1.562413576314E-01 -3.644816375942E-01
H114 2.450987071367E-01 -3.862603305808E-01 -2.636376314090E-01
H115 1.515840261902E-01 -3.276739530901E-02 3.607641077131E-01
C116 -5.246339206550E-02 -1.053538167736E-01 3.184186928825E-01
H117 -2.346913578990E-01 -1.420449507562E-01 2.817895754889E-01
H118 -6.265219409613E-02 3.747167871731E-01 4.741254957364E-01
C119 1.513855217796E-01 -4.352028793804E-01 3.651482707817E-01
H120 3.786748490706E-01 -2.556854251557E-01 2.630896900351E-01
H121 2.972697857692E-01 3.396222070664E-02 -4.690015948446E-01
C122 4.385542855843E-01 5.486144641602E-02 4.403239582291E-01
H123 -3.417417139643E-01 4.671787028934E-01 3.178114067170E-01
C124 -3.548784842815E-01 3.012748516452E-01 3.215043308558E-01
H125 -3.382912032217E-02 -2.962772145297E-01 4.735120311485E-01
C126 -5.758718161921E-02 -4.416935062433E-01 -4.381905706707E-01
H127 -4.732309455122E-01 3.330317368670E-01 -3.159121916660E-01
C128 -3.071249782861E-01 3.468112587740E-01 -3.209404582629E-01
H129 2.534503550178E-01 1.612543556191E-01 -2.969691852231E-01
H130 3.928110999562E-01 -1.150006972466E-01 -3.414946126855E-01
H131 -1.420449507562E-01 -2.346913578990E-01 2.817895754889E-01
H132 1.091704091062E-01 -4.006847608485E-01 3.409999760365E-01
H133 3.747167871731E-01 -6.265219409613E-02 4.741254957364E-01
C134 -4.352028793804E-01 1.513855217796E-01 3.651482707817E-01
H135 -2.556854251557E-01 3.786748490706E-01 2.630896900351E-01
H136 6.041477676264E-02 -3.769068814028E-01 -4.721640420649E-01
C137 -1.562413576314E-01 4.287221281221E-01 -3.644816375942E-01
H138 -3.862603305808E-01 2.450987071367E-01 -2.636376314090E-01
H139 -4.006847608485E-01 1.091704091062E-01 3.409999760365E-01
H140 -1.150006972466E-01 3.928110999562E-01 -3.414946126855E-01


#===END
