###############################################################
#
#primitive cell cif file
#
###############################################################

negm50_data

_symmetry_space_group_name_H-M 'P 1'
_cell_length_a      13.86596031
_cell_length_b      13.86596031
_cell_length_c      14.21100000
_cell_angle_alpha   90.000000
_cell_angle_beta    90.000000
_cell_angle_gamma   150.032293

loop_
_atom_site_label
_atom_site_fract_x
_atom_site_fract_y
_atom_site_fract_z
C1 2.702157274773E-02 -2.779665039431E-02 -3.000225355710E-04
C2 -8.928101374824E-02 -1.965537903569E-01 4.907068854979E-02
C3 1.953661789531E-01 8.986664650543E-02 -5.015952679044E-02
C4 -2.779665039431E-02 2.702157274773E-02 -3.000225355710E-04
C5 -2.652288916183E-01 -3.191282332885E-01 8.794152178003E-02
C6 -2.562476893155E-02 -2.423967619683E-01 7.292166942488E-02
C7 3.201325156727E-01 2.665567144213E-01 -8.915293058068E-02
C8 2.396109765072E-01 2.588065695554E-02 -7.362096126571E-02
C9 8.986664650543E-02 1.953661789531E-01 -5.015952679044E-02
C10 -1.965537903569E-01 -8.928101374824E-02 4.907068854979E-02
C11 -3.191282332885E-01 -2.652288916183E-01 8.794152178003E-02
C12 -3.914501641244E-01 -4.952356482218E-01 1.343117232730E-01
C13 -1.043987247635E-01 -3.923488302066E-01 2.997680621258E-02
C14 1.014782880725E-01 -1.464421336635E-01 1.479968366928E-01
C15 2.665567144213E-01 3.201325156727E-01 -8.915293058068E-02
C16 4.963780047879E-01 3.925407938149E-01 -1.352096860277E-01
C17 3.891814057270E-01 1.057965478591E-01 -2.949787871923E-02
C18 1.437595710688E-01 -1.010179971592E-01 -1.485279203759E-01
C19 2.588065695554E-02 2.396109765072E-01 -7.362096126571E-02
C20 -2.423967619683E-01 -2.562476893155E-02 7.292166942488E-02
C21 -4.952356482218E-01 -3.914501641244E-01 1.343117232730E-01
H22 -3.512571938043E-01 4.644126167792E-01 1.365353117598E-01
C23 4.414455824532E-01 3.885601237038E-01 1.758024519080E-01
H24 -2.025965218747E-01 -4.685190271616E-01 -2.860877488720E-02
C25 -5.888229536118E-02 -4.450299712676E-01 6.153258750412E-02
H26 1.630082579525E-01 -3.092413285096E-02 1.827376213504E-01
C27 1.498602396365E-01 -1.966014238516E-01 1.789905179112E-01
C28 3.925407938149E-01 4.963780047879E-01 -1.352096860277E-01
H29 -4.632686664026E-01 3.523659376268E-01 -1.374764481291E-01
C30 -3.868475736026E-01 -4.397268506979E-01 -1.761882241040E-01
H31 4.636896318096E-01 2.038564778264E-01 2.887759911970E-02
C32 4.425214006972E-01 6.086991281129E-02 -5.995288359602E-02
H33 2.866621874344E-02 -1.622182912162E-01 -1.835387802666E-01
C34 1.949987462170E-01 -1.484500173080E-01 -1.785646929701E-01
C35 1.057965478591E-01 3.891814057270E-01 -2.949787871923E-02
C36 -1.010179971592E-01 1.437595710688E-01 -1.485279203759E-01
C37 -3.923488302066E-01 -1.043987247635E-01 2.997680621258E-02
C38 -1.464421336635E-01 1.014782880725E-01 1.479968366928E-01
H39 4.644126167792E-01 -3.512571938043E-01 1.365353117598E-01
C40 3.885601237038E-01 4.414455824532E-01 1.758024519080E-01
H41 3.494105870891E-01 2.569567721594E-01 2.105842509688E-01
H42 -1.233166136112E-01 4.369675293588E-01 2.791280708648E-02
C43 6.911653001907E-02 -3.470876090955E-01 1.359820952731E-01
H44 2.504721038924E-01 -1.176068234062E-01 2.368753479904E-01
H45 3.523659376268E-01 -4.632686664026E-01 -1.374764481291E-01
C46 -4.397268506979E-01 -3.868475736026E-01 -1.761882241040E-01
H47 -2.549015149238E-01 -3.472901065356E-01 -2.106569883193E-01
H48 -4.399654997825E-01 1.250597178129E-01 -2.579765511224E-02
C49 3.452855114935E-01 -6.695846247847E-02 -1.343879963510E-01
H50 1.174579969424E-01 -2.487437638152E-01 -2.363973305655E-01
H51 2.038564778264E-01 4.636896318096E-01 2.887759911970E-02
C52 6.086991281129E-02 4.425214006972E-01 -5.995288359602E-02
H53 -1.622182912162E-01 2.866621874344E-02 -1.835387802666E-01
C54 -1.484500173080E-01 1.949987462170E-01 -1.785646929701E-01
H55 -4.685190271616E-01 -2.025965218747E-01 -2.860877488720E-02
C56 -4.450299712676E-01 -5.888229536118E-02 6.153258750412E-02
H57 -3.092413285096E-02 1.630082579525E-01 1.827376213504E-01
C58 -1.966014238516E-01 1.498602396365E-01 1.789905179112E-01
H59 2.569567721594E-01 3.494105870891E-01 2.105842509688E-01
H60 1.045326836053E-01 -3.885056624226E-01 1.599054141945E-01
H61 -3.472901065356E-01 -2.549015149238E-01 -2.106569883193E-01
H62 3.873232312247E-01 -1.019714555901E-01 -1.575999970835E-01
H63 1.250597178129E-01 -4.399654997825E-01 -2.579765511224E-02
C64 -6.695846247847E-02 3.452855114935E-01 -1.343879963510E-01
H65 -2.487437638152E-01 1.174579969424E-01 -2.363973305655E-01
H66 4.369675293588E-01 -1.233166136112E-01 2.791280708648E-02
C67 -3.470876090955E-01 6.911653001907E-02 1.359820952731E-01
H68 -1.176068234062E-01 2.504721038924E-01 2.368753479904E-01
H69 -1.019714555901E-01 3.873232312247E-01 -1.575999970835E-01
H70 -3.885056624226E-01 1.045326836053E-01 1.599054141945E-01
C71 4.722033496057E-01 -4.729784272523E-01 -4.996999774644E-01
C72 -4.101333534946E-01 -3.046338210469E-01 -4.498404732096E-01
C73 3.034462096431E-01 4.107189862518E-01 4.509293114502E-01
C74 -4.729784272523E-01 4.722033496057E-01 -4.996999774644E-01
C75 -2.334432855787E-01 -1.798674843273E-01 -4.108470694193E-01
C76 -4.741193430445E-01 -2.603890234928E-01 -4.263790387343E-01
C77 1.808717667115E-01 2.347711083817E-01 4.120584782200E-01
C78 2.576032380317E-01 4.743752310685E-01 4.270783305751E-01
C79 4.107189862518E-01 3.034462096431E-01 4.509293114502E-01
C80 -3.046338210469E-01 -4.101333534946E-01 -4.498404732096E-01
C81 -1.798674843273E-01 -2.334432855787E-01 -4.108470694193E-01
C82 -1.074592061851E-01 -3.621995212137E-03 -3.647903139723E-01
C83 -3.942034521409E-01 -1.108185942730E-01 -4.705021212808E-01
C84 3.989820028408E-01 -3.562404289312E-01 -3.514720796241E-01
C85 2.347711083817E-01 1.808717667115E-01 4.120584782200E-01
C86 4.764351778204E-03 1.085498358756E-01 3.656882767270E-01
C87 1.076511697934E-01 3.956012752365E-01 4.700231937874E-01
C88 3.535578663365E-01 -3.985217119275E-01 3.520031633072E-01
C89 4.743752310685E-01 2.576032380317E-01 4.270783305751E-01
C90 -2.603890234928E-01 -4.741193430445E-01 -4.263790387343E-01
C91 -3.621995212137E-03 -1.074592061851E-01 -3.647903139723E-01
H92 -1.476340623732E-01 3.673133359743E-02 -3.625235518709E-01
C93 6.027314930214E-02 1.131524263974E-01 -3.238117758960E-01
H94 -2.961435221736E-01 -3.631036819037E-02 4.711224008803E-01
C95 -4.391300871887E-01 -5.747859930278E-02 -4.400471164040E-01
H96 3.377817087838E-01 -4.713337812566E-01 -3.164612197334E-01
C97 3.515499826920E-01 -3.050012537830E-01 -3.214353070299E-01
C98 1.085498358756E-01 4.764351778204E-03 3.656882767270E-01
H99 -3.558738322083E-02 1.487428061957E-01 3.634646882402E-01
C100 -1.114398762962E-01 -5.855441754677E-02 3.241975480920E-01
H101 3.148097283843E-02 2.974034781253E-01 -4.713912251128E-01
C102 5.497002873244E-02 4.411177046388E-01 4.384674124959E-01
H103 4.690758671490E-01 -3.369917420475E-01 3.172623786496E-01
C104 3.033985761484E-01 -3.501397603635E-01 3.210094820888E-01
C105 3.956012752365E-01 1.076511697934E-01 4.700231937874E-01
C106 -3.985217119275E-01 3.535578663365E-01 3.520031633072E-01
C107 -1.108185942730E-01 -3.942034521409E-01 -4.705021212808E-01
C108 -3.562404289312E-01 3.989820028408E-01 -3.514720796241E-01
H109 3.673133359743E-02 -1.476340623732E-01 -3.625235518709E-01
C110 1.131524263974E-01 6.027314930214E-02 -3.238117758960E-01
H111 1.527098934644E-01 2.450984850762E-01 -2.893430116807E-01
H112 -3.749402821871E-01 6.003450021752E-02 -4.742023448878E-01
C113 4.330415375215E-01 -1.547144885065E-01 -3.656120036490E-01
H114 2.512562361848E-01 -3.825420030576E-01 -2.636026694345E-01
H115 1.487428061957E-01 -3.558738322083E-02 3.634646882402E-01
C116 -5.855441754677E-02 -1.114398762962E-01 3.241975480920E-01
H117 -2.430432278406E-01 -1.505894129109E-01 2.894157490312E-01
H118 -6.303247064125E-02 3.766833863888E-01 4.720871929135E-01
C119 1.529123909045E-01 -4.308834699809E-01 3.640179047269E-01
H120 3.823931765938E-01 -2.495278961076E-01 2.631246520096E-01
H121 2.974034781253E-01 3.148097283843E-02 -4.713912251128E-01
C122 4.411177046388E-01 5.497002873244E-02 4.384674124959E-01
H123 -3.369917420475E-01 4.690758671490E-01 3.172623786496E-01
C124 -3.501397603635E-01 3.033985761484E-01 3.210094820888E-01
H125 -3.631036819037E-02 -2.961435221736E-01 4.711224008803E-01
C126 -5.747859930278E-02 -4.391300871887E-01 -4.400471164040E-01
H127 -4.713337812566E-01 3.377817087838E-01 -3.164612197334E-01
C128 -3.050012537830E-01 3.515499826920E-01 -3.214353070299E-01
H129 2.450984850762E-01 1.527098934644E-01 -2.893430116807E-01
H130 3.980285444099E-01 -1.126767687753E-01 -3.424000029165E-01
H131 -1.505894129109E-01 -2.430432278406E-01 2.894157490312E-01
H132 1.114943375774E-01 -3.954673163947E-01 3.400945858055E-01
H133 3.766833863888E-01 -6.303247064125E-02 4.720871929135E-01
C134 -4.308834699809E-01 1.529123909045E-01 3.640179047269E-01
H135 -2.495278961076E-01 3.823931765938E-01 2.631246520096E-01
H136 6.003450021752E-02 -3.749402821871E-01 -4.742023448878E-01
C137 -1.547144885065E-01 4.330415375215E-01 -3.656120036490E-01
H138 -3.825420030576E-01 2.512562361848E-01 -2.636026694345E-01
H139 -3.954673163947E-01 1.114943375774E-01 3.400945858055E-01
H140 -1.126767687753E-01 3.980285444099E-01 -3.424000029165E-01


#===END
