###############################################################
#
#primitive cell cif file
#
###############################################################

posm5_data

_symmetry_space_group_name_H-M 'P 1'
_cell_length_a      13.86596031
_cell_length_b      13.86596031
_cell_length_c      14.21100000
_cell_angle_alpha   90.000000
_cell_angle_beta    90.000000
_cell_angle_gamma   150.032293

loop_
_atom_site_label
_atom_site_fract_x
_atom_site_fract_y
_atom_site_fract_z
C1 4.118579242834E-02 -1.363243071370E-02 -1.148714707762E-03
C2 -7.564962009888E-02 -1.820345787589E-01 4.859482340968E-02
C3 2.098853905512E-01 1.034980401548E-01 -5.063539193055E-02
C4 -1.363243071370E-02 4.118579242834E-02 -1.148714707762E-03
C5 -2.521233834838E-01 -3.058505889457E-01 8.749634508951E-02
C6 -1.188549361359E-02 -2.270011133739E-01 7.277576802224E-02
C7 3.334101600155E-01 2.796622225557E-01 -8.959810727120E-02
C8 2.550066251017E-01 3.961993227350E-02 -7.376686266836E-02
C9 1.034980401548E-01 2.098853905512E-01 -5.063539193055E-02
C10 -1.820345787589E-01 -7.564962009888E-02 4.859482340968E-02
C11 -3.058505889457E-01 -2.521233834838E-01 8.749634508951E-02
C12 -3.780687938425E-01 -4.818867458272E-01 1.339832870028E-01
C13 -9.064021629774E-02 -3.764512333212E-01 2.931781336148E-02
C14 1.131729479224E-01 -1.324153314984E-01 1.486454092163E-01
C15 2.796622225557E-01 3.334101600155E-01 -8.959810727120E-02
C16 -4.902730928176E-01 4.059221640968E-01 -1.355381222979E-01
C17 4.050790026123E-01 1.195550563249E-01 -3.015687157033E-02
C18 1.577863732339E-01 -8.932333730922E-02 -1.478793478524E-01
C19 3.961993227350E-02 2.550066251017E-01 -7.376686266836E-02
C20 -2.270011133739E-01 -1.188549361359E-02 7.277576802224E-02
C21 -4.818867458272E-01 -3.780687938425E-01 1.339832870028E-01
H22 -3.377942313563E-01 4.778454186196E-01 1.361961282132E-01
C23 4.550406826433E-01 4.021465407444E-01 1.758147168803E-01
H24 -1.870696068713E-01 -4.505478172132E-01 -2.991983903758E-02
C25 -4.714096163240E-02 -4.307906334513E-01 6.138406015889E-02
H26 1.735909665364E-01 -1.771742033915E-02 1.835959951374E-01
C27 1.593210083089E-01 -1.844857939059E-01 1.802396893455E-01
C28 4.059221640968E-01 -4.902730928176E-01 -1.355381222979E-01
H29 -4.498358645621E-01 3.658289000748E-01 -1.378156316757E-01
C30 -3.732611565620E-01 -4.261317505078E-01 -1.761759591317E-01
H31 4.816608417580E-01 2.193833928298E-01 2.756653496932E-02
C32 4.567607385135E-01 7.261124654007E-02 -6.010141094124E-02
H33 4.187293125526E-02 -1.516355826324E-01 -1.826804064797E-01
C34 2.071143761628E-01 -1.389892486356E-01 -1.773155215358E-01
C35 1.195550563249E-01 4.050790026123E-01 -3.015687157033E-02
C36 -8.932333730922E-02 1.577863732339E-01 -1.478793478524E-01
C37 -3.764512333212E-01 -9.064021629774E-02 2.931781336148E-02
C38 -1.324153314984E-01 1.131729479224E-01 1.486454092163E-01
H39 4.778454186196E-01 -3.377942313563E-01 1.361961282132E-01
C40 4.021465407444E-01 4.550406826433E-01 1.758147168803E-01
H41 3.634650283627E-01 2.708948292761E-01 2.109619755322E-01
H42 -1.110214004205E-01 4.516475998453E-01 2.758146597706E-02
C43 7.846869725761E-02 -3.348413662782E-01 1.368582750097E-01
H44 2.579660223229E-01 -1.075880243949E-01 2.388821207911E-01
H45 3.658289000748E-01 -4.498358645621E-01 -1.378156316757E-01
C46 -4.261317505078E-01 -3.732611565620E-01 -1.761759591317E-01
H47 -2.409634578072E-01 -3.332356652620E-01 -2.102792637558E-01
H48 -4.252854292959E-01 1.373549310036E-01 -2.612899622166E-02
C49 3.575317543108E-01 -5.760629523993E-02 -1.335118166144E-01
H50 1.274767959537E-01 -2.412498453846E-01 -2.343905577648E-01
H51 2.193833928298E-01 4.816608417580E-01 2.756653496932E-02
C52 7.261124654007E-02 4.567607385135E-01 -6.010141094124E-02
H53 -1.516355826324E-01 4.187293125526E-02 -1.826804064797E-01
C54 -1.389892486356E-01 2.071143761628E-01 -1.773155215358E-01
H55 -4.505478172132E-01 -1.870696068713E-01 -2.991983903758E-02
C56 -4.307906334513E-01 -4.714096163240E-02 6.138406015889E-02
H57 -1.771742033915E-02 1.735909665364E-01 1.835959951374E-01
C58 -1.844857939059E-01 1.593210083089E-01 1.802396893455E-01
H59 2.708948292761E-01 3.634650283627E-01 2.109619755322E-01
H60 1.121339891289E-01 -3.778103360363E-01 1.612420530417E-01
H61 -3.332356652620E-01 -2.409634578072E-01 -2.102792637558E-01
H62 3.980185576109E-01 -9.437015006646E-02 -1.562633582364E-01
H63 1.373549310036E-01 -4.252854292959E-01 -2.612899622166E-02
C64 -5.760629523993E-02 3.575317543108E-01 -1.335118166144E-01
H65 -2.412498453846E-01 1.274767959537E-01 -2.343905577648E-01
H66 4.516475998453E-01 -1.110214004205E-01 2.758146597706E-02
C67 -3.348413662782E-01 7.846869725761E-02 1.368582750097E-01
H68 -1.075880243949E-01 2.579660223229E-01 2.388821207911E-01
H69 -9.437015006646E-02 3.980185576109E-01 -1.562633582364E-01
H70 -3.778103360363E-01 1.121339891289E-01 1.612420530417E-01
C71 4.588142075717E-01 -4.863675692863E-01 4.988512852922E-01
C72 -4.243503799011E-01 -3.179654212411E-01 -4.514051765903E-01
C73 2.901146094488E-01 3.965019598452E-01 4.493646080695E-01
C74 -4.863675692863E-01 4.588142075717E-01 4.988512852922E-01
C75 -2.478766165162E-01 -1.941494110543E-01 -4.125036549105E-01
C76 -4.881145063864E-01 -2.729988866261E-01 -4.272242319778E-01
C77 1.665898399845E-01 2.203377774443E-01 4.104018927288E-01
C78 2.449933748983E-01 4.603800677265E-01 4.262331373316E-01
C79 3.965019598452E-01 2.901146094488E-01 4.493646080695E-01
C80 -3.179654212411E-01 -4.243503799011E-01 -4.514051765903E-01
C81 -1.941494110543E-01 -2.478766165162E-01 -4.125036549105E-01
C82 -1.219312061575E-01 -1.811325417279E-02 -3.660167129972E-01
C83 -4.093597837023E-01 -1.235487666788E-01 -4.706821866385E-01
C84 3.868270520776E-01 -3.675846685016E-01 -3.513545907837E-01
C85 2.203377774443E-01 1.665898399845E-01 4.104018927288E-01
C86 -9.726907182444E-03 9.407783590323E-02 3.644618777021E-01
C87 9.492099738766E-02 3.804449436751E-01 4.698431284297E-01
C88 3.422136267661E-01 -4.106766626908E-01 3.521206521476E-01
C89 4.603800677265E-01 2.449933748983E-01 4.262331373316E-01
C90 -2.729988866261E-01 -4.881145063864E-01 -4.272242319778E-01
C91 -1.811325417278E-02 -1.219312061575E-01 -3.660167129972E-01
H92 -1.622057686437E-01 2.215458138040E-02 -3.638038717868E-01
C93 4.495931735668E-02 9.785345925559E-02 -3.241852831197E-01
H94 -3.129303931287E-01 -4.945218278678E-02 4.700801609624E-01
C95 -4.528590383676E-01 -6.920936654872E-02 -4.386159398411E-01
H96 3.264090334636E-01 -4.822825796609E-01 -3.164040048626E-01
C97 3.406789916911E-01 -3.155142060941E-01 -3.197603106545E-01
C98 9.407783590323E-02 -9.726907182444E-03 3.644618777021E-01
H99 -5.016413543786E-02 1.341710999252E-01 3.621843683243E-01
C100 -1.267388434380E-01 -7.386824949223E-02 3.238240408683E-01
H101 1.833915824203E-02 2.806166071702E-01 -4.724334650307E-01
C102 4.323926148651E-02 4.273887534599E-01 4.398985890588E-01
H103 4.581270687447E-01 -3.483644173676E-01 3.173195935203E-01
C104 2.928856238372E-01 -3.610107513644E-01 3.226844784642E-01
C105 3.804449436751E-01 9.492099738766E-02 4.698431284297E-01
C106 -4.106766626908E-01 3.422136267661E-01 3.521206521476E-01
C107 -1.235487666788E-01 -4.093597837023E-01 -4.706821866385E-01
C108 -3.675846685016E-01 3.868270520776E-01 -3.513545907837E-01
H109 2.215458138040E-02 -1.622057686437E-01 -3.638038717868E-01
C110 9.785345925559E-02 4.495931735668E-02 -3.241852831197E-01
H111 1.365349716373E-01 2.291051707239E-01 -2.890380244678E-01
H112 -3.889785995795E-01 4.835240015466E-02 -4.724185340229E-01
C113 4.215313027424E-01 -1.651586337218E-01 -3.631417249903E-01
H114 2.420339776771E-01 -3.924119756051E-01 -2.611178792089E-01
H115 1.341710999252E-01 -5.016413543786E-02 3.621843683243E-01
C116 -7.386824949223E-02 -1.267388434380E-01 3.238240408683E-01
H117 -2.590365421928E-01 -1.667643347380E-01 2.897207362442E-01
H118 -7.471457070411E-02 3.626450689964E-01 4.738710037783E-01
C119 1.424682456892E-01 -4.423937047601E-01 3.664881833856E-01
H120 3.725232040463E-01 -2.587501546154E-01 2.656094422352E-01
H121 2.806166071702E-01 1.833915824203E-02 -4.724334650307E-01
C122 4.273887534599E-01 4.323926148651E-02 4.398985890588E-01
H123 -3.483644173676E-01 4.581270687447E-01 3.173195935203E-01
C124 -3.610107513644E-01 2.928856238372E-01 3.226844784642E-01
H125 -4.945218278677E-02 -3.129303931287E-01 4.700801609624E-01
C126 -6.920936654872E-02 -4.528590383676E-01 -4.386159398411E-01
H127 -4.822825796609E-01 3.264090334636E-01 -3.164040048626E-01
C128 -3.155142060941E-01 3.406789916911E-01 -3.197603106545E-01
H129 2.291051707239E-01 1.365349716373E-01 -2.890380244678E-01
H130 3.878660108711E-01 -1.221896639637E-01 -3.387579469583E-01
H131 -1.667643347380E-01 -2.590365421928E-01 2.897207362442E-01
H132 1.019814423891E-01 -4.056298499335E-01 3.437366417636E-01
H133 3.626450689964E-01 -7.471457070411E-02 4.738710037783E-01
C134 -4.423937047601E-01 1.424682456892E-01 3.664881833856E-01
H135 -2.587501546154E-01 3.725232040463E-01 2.656094422352E-01
H136 4.835240015466E-02 -3.889785995795E-01 -4.724185340229E-01
C137 -1.651586337218E-01 4.215313027424E-01 -3.631417249903E-01
H138 -3.924119756051E-01 2.420339776771E-01 -2.611178792089E-01
H139 -4.056298499335E-01 1.019814423891E-01 3.437366417636E-01
H140 -1.221896639637E-01 3.878660108711E-01 -3.387579469583E-01


#===END
