###############################################################
#
#primitive cell cif file
#
###############################################################

posm27_data

_symmetry_space_group_name_H-M 'P 1'
_cell_length_a      13.86596031
_cell_length_b      13.86596031
_cell_length_c      14.21100000
_cell_angle_alpha   90.000000
_cell_angle_beta    90.000000
_cell_angle_gamma   150.032293

loop_
_atom_site_label
_atom_site_fract_x
_atom_site_fract_y
_atom_site_fract_z
C1 2.788776965428E-02 -2.693045348775E-02 -2.714294531701E-04
C2 -8.822581580769E-02 -1.954424717044E-01 4.905177458180E-02
C3 1.964774976056E-01 9.092184444597E-02 -5.017844075843E-02
C4 -2.788776965428E-02 2.693045348775E-02 2.714294531701E-04
C5 -2.647938988989E-01 -3.199056406196E-01 8.819958053086E-02
C6 -2.453544401283E-02 -2.406686862318E-01 7.319596008613E-02
C7 3.193551083416E-01 2.669917071407E-01 -8.889487182985E-02
C8 2.413390522437E-01 2.696998187426E-02 -7.334667060446E-02
C9 8.822581580769E-02 1.954424717044E-01 -4.905177458180E-02
C10 -1.964774976056E-01 -9.092184444597E-02 5.017844075843E-02
C11 -3.193551083416E-01 -2.669917071407E-01 8.889487182985E-02
C12 -3.904518386166E-01 -4.962529245837E-01 1.339633067793E-01
C13 -1.027953378403E-01 -3.898089706295E-01 2.968957423355E-02
C14 9.827319253131E-02 -1.480515986331E-01 1.499532082926E-01
C15 2.647938988989E-01 3.199056406196E-01 -8.819958053086E-02
C16 4.953607284260E-01 3.935391193227E-01 -1.355581025214E-01
C17 3.917212653041E-01 1.073999347824E-01 -2.978511069826E-02
C18 1.421501060992E-01 -1.042230927003E-01 -1.465715487762E-01
C19 2.453544401283E-02 2.406686862318E-01 -7.319596008613E-02
C20 -2.413390522437E-01 -2.696998187426E-02 7.334667060446E-02
C21 -4.953607284260E-01 -3.935391193227E-01 1.355581025214E-01
H22 -3.499112721571E-01 4.637306735746E-01 1.356557111647E-01
C23 4.420812980065E-01 3.866452055731E-01 1.755248024953E-01
H24 -1.977153597671E-01 -4.628161625363E-01 -3.015868633685E-02
C25 -6.128876000934E-02 -4.458427218350E-01 6.267184829034E-02
H26 1.589078243214E-01 -3.322572425253E-02 1.848418957964E-01
C27 1.423276616282E-01 -2.018756684279E-01 1.825284888226E-01
C28 3.904518386166E-01 4.962529245837E-01 -1.339633067793E-01
H29 -4.639506096071E-01 3.537118592741E-01 -1.383560487243E-01
C30 -3.887624917333E-01 -4.390911351445E-01 -1.764658735166E-01
H31 4.693924964349E-01 2.087376399339E-01 2.732768767004E-02
C32 4.417086501298E-01 5.846344816313E-02 -5.881362280980E-02
H33 2.636462734187E-02 -1.663187248473E-01 -1.814345058207E-01
C34 1.897245016408E-01 -1.559825953164E-01 -1.750267220587E-01
C35 1.027953378403E-01 3.898089706295E-01 -2.968957423355E-02
C36 -9.827319253131E-02 1.480515986331E-01 -1.499532082926E-01
C37 -3.917212653041E-01 -1.073999347824E-01 2.978511069826E-02
C38 -1.421501060992E-01 1.042230927003E-01 1.465715487762E-01
H39 4.639506096071E-01 -3.537118592741E-01 1.383560487243E-01
C40 3.887624917333E-01 4.390911351445E-01 1.764658735166E-01
H41 3.502411657425E-01 2.547660560274E-01 2.097722768474E-01
H42 -1.247284951963E-01 4.369677608170E-01 2.869984585631E-02
C43 6.185466606104E-02 -3.519558410638E-01 1.391547789929E-01
H44 2.398501372390E-01 -1.257182215001E-01 2.416532926373E-01
H45 3.499112721571E-01 -4.637306735746E-01 -1.356557111647E-01
C46 -4.420812980065E-01 -3.866452055731E-01 -1.755248024953E-01
H47 -2.570922310558E-01 -3.464595278822E-01 -2.114689624406E-01
H48 -4.399652683243E-01 1.236478362278E-01 -2.501061634241E-02
C49 3.404172795252E-01 -7.422032643650E-02 -1.312153126312E-01
H50 1.093465988484E-01 -2.593657304685E-01 -2.316193859187E-01
H51 1.977153597671E-01 4.628161625363E-01 3.015868633685E-02
C52 6.128876000934E-02 4.458427218350E-01 -6.267184829034E-02
H53 -1.589078243214E-01 3.322572425253E-02 -1.848418957964E-01
C54 -1.423276616282E-01 2.018756684279E-01 -1.825284888226E-01
H55 -4.693924964349E-01 -2.087376399339E-01 -2.732768767004E-02
C56 -4.417086501298E-01 -5.846344816313E-02 5.881362280980E-02
H57 -2.636462734187E-02 1.663187248473E-01 1.814345058207E-01
C58 -1.897245016408E-01 1.559825953164E-01 1.750267220587E-01
H59 2.570922310558E-01 3.464595278822E-01 2.114689624406E-01
H60 9.437501030200E-02 -3.958352908607E-01 1.641898036638E-01
H61 -3.502411657425E-01 -2.547660560274E-01 -2.097722768474E-01
H62 3.799936027865E-01 -1.121291288934E-01 -1.533156076142E-01
H63 1.247284951963E-01 -4.369677608170E-01 -2.869984585631E-02
C64 -6.185466606104E-02 3.519558410638E-01 -1.391547789929E-01
H65 -2.398501372390E-01 1.257182215001E-01 -2.416532926373E-01
H66 4.399652683243E-01 -1.236478362278E-01 2.501061634241E-02
C67 -3.404172795252E-01 7.422032643650E-02 1.312153126312E-01
H68 -1.093465988484E-01 2.593657304685E-01 2.316193859187E-01
H69 -9.437501030200E-02 3.958352908607E-01 -1.641898036638E-01
H70 -3.799936027865E-01 1.121291288934E-01 1.533156076142E-01
C71 4.721122303457E-01 -4.730695465122E-01 4.997285705468E-01
C72 -4.117741841923E-01 -3.045575282956E-01 -4.509482254182E-01
C73 3.035225023944E-01 4.090781555540E-01 4.498215592416E-01
C74 -4.721122303457E-01 4.730695465122E-01 -4.997285705468E-01
C75 -2.352061011011E-01 -1.800943593804E-01 -4.118004194691E-01
C76 -4.754645559872E-01 -2.593313137682E-01 -4.268040399139E-01
C77 1.806448916584E-01 2.330082928593E-01 4.111051281701E-01
C78 2.586609477563E-01 4.730300181257E-01 4.266533293955E-01
C79 4.117741841923E-01 3.045575282956E-01 4.509482254182E-01
C80 -3.035225023944E-01 -4.090781555540E-01 -4.498215592416E-01
C81 -1.806448916584E-01 -2.330082928593E-01 -4.111051281702E-01
C82 -1.095481613834E-01 -3.747075416323E-03 -3.660366932207E-01
C83 -3.972046621597E-01 -1.101910293705E-01 -4.703104257664E-01
C84 4.017268074687E-01 -3.519484013669E-01 -3.500467917074E-01
C85 2.352061011011E-01 1.800943593804E-01 4.118004194691E-01
C86 4.639271574018E-03 1.064608806773E-01 3.644418974786E-01
C87 1.082787346959E-01 3.926000652176E-01 4.702148893017E-01
C88 3.578498939008E-01 -3.957769072997E-01 3.534284512238E-01
C89 4.754645559872E-01 2.593313137682E-01 4.268040399139E-01
C90 -2.586609477563E-01 -4.730300181257E-01 -4.266533293955E-01
C91 -4.639271574018E-03 -1.064608806773E-01 -3.644418974786E-01
H92 -1.500887278429E-01 3.626932642537E-02 -3.643442888353E-01
C93 5.791870199345E-02 1.133547944269E-01 -3.244751975047E-01
H94 -3.022846402329E-01 -3.718383746366E-02 4.698413136631E-01
C95 -4.387112399907E-01 -5.415727816499E-02 -4.373281517097E-01
H96 3.410921756786E-01 -4.667742757475E-01 -3.151581042036E-01
C97 3.576723383718E-01 -2.981243315721E-01 -3.174715111774E-01
C98 1.095481613834E-01 3.747075416323E-03 3.660366932207E-01
H99 -3.604939039288E-02 1.462881407259E-01 3.616439512757E-01
C100 -1.112375082667E-01 -6.090886485546E-02 3.235341264834E-01
H101 3.060750356514E-02 2.912623600661E-01 -4.726723123300E-01
C102 5.829134987024E-02 4.415365518369E-01 4.411863771902E-01
H103 4.736353726581E-01 -3.336812751527E-01 3.185654941793E-01
C104 3.102754983592E-01 -3.440174046836E-01 3.249732779413E-01
C105 3.972046621597E-01 1.101910293705E-01 4.703104257664E-01
C106 -4.017268074687E-01 3.519484013669E-01 3.500467917074E-01
C107 -1.082787346959E-01 -3.926000652176E-01 -4.702148893017E-01
C108 -3.578498939008E-01 3.957769072997E-01 -3.534284512238E-01
H109 3.604939039288E-02 -1.462881407259E-01 -3.616439512757E-01
C110 1.112375082667E-01 6.090886485546E-02 -3.235341264834E-01
H111 1.497588342575E-01 2.452339439726E-01 -2.902277231526E-01
H112 -3.752715048037E-01 6.303223918303E-02 -4.713001541437E-01
C113 4.381453339390E-01 -1.480441589362E-01 -3.608452210071E-01
H114 2.601498627610E-01 -3.742817784999E-01 -2.583467073627E-01
H115 1.500887278429E-01 -3.626932642537E-02 3.643442888353E-01
C116 -5.791870199345E-02 -1.133547944269E-01 3.244751975047E-01
H117 -2.429077689442E-01 -1.535404721178E-01 2.885310375594E-01
H118 -6.003473167573E-02 3.763521637722E-01 4.749893836576E-01
C119 1.595827204748E-01 -4.257796735635E-01 3.687846873688E-01
H120 3.906534011516E-01 -2.406342695315E-01 2.683806140813E-01
H121 3.022846402329E-01 3.718383746366E-02 -4.698413136631E-01
C122 4.387112399907E-01 5.415727816499E-02 4.373281517097E-01
H123 -3.410921756786E-01 4.667742757475E-01 3.151581042036E-01
C124 -3.576723383718E-01 2.981243315721E-01 3.174715111774E-01
H125 -3.060750356514E-02 -2.912623600661E-01 4.726723123300E-01
C126 -5.829134987024E-02 -4.415365518369E-01 -4.411863771902E-01
H127 -4.736353726581E-01 3.336812751527E-01 -3.185654941793E-01
C128 -3.102754983592E-01 3.440174046836E-01 -3.249732779413E-01
H129 2.429077689442E-01 1.535404721178E-01 -2.885310375594E-01
H130 4.056249896980E-01 -1.041647091393E-01 -3.358101963362E-01
H131 -1.497588342575E-01 -2.452339439726E-01 2.902277231526E-01
H132 1.200063972135E-01 -3.878708711066E-01 3.466843923858E-01
H133 3.752715048037E-01 -6.303223918303E-02 4.713001541437E-01
C134 -4.381453339390E-01 1.480441589362E-01 3.608452210071E-01
H135 -2.601498627610E-01 3.742817784999E-01 2.583467073627E-01
H136 6.003473167573E-02 -3.763521637722E-01 -4.749893836576E-01
C137 -1.595827204748E-01 4.257796735635E-01 -3.687846873688E-01
H138 -3.906534011516E-01 2.406342695315E-01 -2.683806140813E-01
H139 -4.056249896980E-01 1.041647091393E-01 3.358101963362E-01
H140 -1.200063972135E-01 3.878708711066E-01 -3.466843923858E-01


#===END
