###############################################################
#
#primitive cell cif file
#
###############################################################

posm19_data

_symmetry_space_group_name_H-M 'P 1'
_cell_length_a      13.86596031
_cell_length_b      13.86596031
_cell_length_c      14.21100000
_cell_angle_alpha   90.000000
_cell_angle_beta    90.000000
_cell_angle_gamma   150.032293

loop_
_atom_site_label
_atom_site_fract_x
_atom_site_fract_y
_atom_site_fract_z
C1 2.741926848979E-02 -2.741926848979E-02 0.000000000000E+00
C2 -8.998120949806E-02 -1.964389744263E-01 4.920881213145E-02
C3 1.964389744263E-01 8.998120949806E-02 -4.920881213145E-02
C4 -2.739895465225E-02 2.739895465225E-02 0.000000000000E+00
C5 -2.663479339496E-01 -3.201998841313E-01 8.802546884491E-02
C6 -2.528943398261E-02 -2.404975966350E-01 7.341264750151E-02
C7 3.201998841313E-01 2.663479339496E-01 -8.802546884491E-02
C8 2.404975966350E-01 2.528943398261E-02 -7.341264750151E-02
C9 8.916645075561E-02 1.954809948837E-01 -5.002140320878E-02
C10 -1.954809948837E-01 -8.916645075561E-02 5.002140320878E-02
C11 -3.190608648300E-01 -2.654376720900E-01 8.906898351580E-02
C12 -3.934223255484E-01 -4.976498358162E-01 1.329580045406E-01
C13 -9.796805293172E-02 -3.852781100457E-01 2.838859722926E-02
C14 9.700171881356E-02 -1.473642302356E-01 1.505778535482E-01
C15 2.654376720900E-01 3.190608648300E-01 -8.906898351580E-02
C16 4.976498358162E-01 3.934223255484E-01 -1.329580045406E-01
C17 3.852781100457E-01 9.796805293172E-02 -2.838859722926E-02
C18 1.473642302356E-01 -9.700171881356E-02 -1.505778535482E-01
C19 2.621599190448E-02 2.415101418406E-01 -7.312998318908E-02
C20 -2.415101418406E-01 -2.621599190448E-02 7.312998318908E-02
C21 -4.939638171934E-01 -3.905686323909E-01 1.365634047600E-01
H22 -3.542808158974E-01 4.608709737432E-01 1.335272277958E-01
C23 4.397619765262E-01 3.862598629338E-01 1.748595659115E-01
H24 -1.930016777406E-01 -4.590767991372E-01 -3.155792890346E-02
C25 -4.969652047926E-02 -4.352069416984E-01 5.970601773000E-02
H26 1.525419676974E-01 -3.643941529373E-02 1.867076748640E-01
C27 1.477058007386E-01 -1.950862908080E-01 1.815245470906E-01
C28 3.905686323909E-01 4.939638171934E-01 -1.365634047600E-01
H29 -4.608709737432E-01 3.542808158974E-01 -1.335272277958E-01
C30 -3.862598629338E-01 -4.397619765262E-01 -1.748595659115E-01
H31 4.590767991372E-01 1.930016777406E-01 3.155792890346E-02
C32 4.352069416984E-01 4.969652047926E-02 -5.970601773000E-02
H33 3.643941529373E-02 -1.525419676974E-01 -1.867076748640E-01
C34 1.950862908080E-01 -1.477058007386E-01 -1.815245470906E-01
C35 1.122272196909E-01 3.962521258879E-01 -3.108608770255E-02
C36 -1.054945664181E-01 1.428374744967E-01 -1.459469035206E-01
C37 -3.962521258879E-01 -1.122272196909E-01 3.108608770255E-02
C38 -1.428374744967E-01 1.054945664181E-01 1.459469035206E-01
H39 4.668103094386E-01 -3.493423155337E-01 1.404845320932E-01
C40 3.891478343726E-01 4.414104566249E-01 1.771311101005E-01
H41 3.464242542922E-01 2.532468767033E-01 2.083664762543E-01
H42 -1.089329672910E-01 4.507415779261E-01 2.464191239308E-02
C43 7.409893276691E-02 -3.398251825465E-01 1.361091186910E-01
H44 2.446688377166E-01 -1.188352249493E-01 2.410090599884E-01
H45 3.493423155337E-01 -4.668103094386E-01 -1.404845320932E-01
C46 -4.414104566249E-01 -3.891478343726E-01 -1.771311101005E-01
H47 -2.532468767033E-01 -3.464242542922E-01 -2.083664762543E-01
H48 -4.507415779261E-01 1.089329672910E-01 -2.464191239308E-02
C49 3.398251825465E-01 -7.409893276691E-02 -1.361091186910E-01
H50 1.188352249493E-01 -2.446688377166E-01 -2.410090599884E-01
H51 2.134513219604E-01 4.731318598340E-01 2.592844510344E-02
C52 7.005568769320E-02 4.523444302663E-01 -6.177945337014E-02
H53 -1.726845814714E-01 2.315093630068E-02 -1.795687267531E-01
C54 -1.506044562059E-01 1.965138792606E-01 -1.760306637907E-01
H55 -4.731318598340E-01 -2.134513219604E-01 -2.592844510344E-02
C56 -4.523444302663E-01 -7.005568769320E-02 6.177945337014E-02
H57 -2.315093630068E-02 1.726845814714E-01 1.795687267531E-01
C58 -1.965138792606E-01 1.506044562059E-01 1.760306637907E-01
H59 2.586114103799E-01 3.502764393325E-01 2.128747630337E-01
H60 1.117356887527E-01 -3.791034215616E-01 1.598269209392E-01
H61 -3.502764393325E-01 -2.586114103799E-01 -2.128747630337E-01
H62 3.791034215616E-01 -1.117356887527E-01 -1.598269209392E-01
H63 1.394433641331E-01 -4.261914512151E-01 -2.906854980564E-02
C64 -6.197605973063E-02 3.525479380425E-01 -1.342609729331E-01
H65 -2.545470299910E-01 1.162295953993E-01 -2.322636185675E-01
H66 4.261914512151E-01 -1.394433641331E-01 2.906854980564E-02
C67 -3.525479380425E-01 6.197605973063E-02 1.342609729331E-01
H68 -1.162295953993E-01 2.545470299910E-01 2.322636185675E-01
H69 -9.476845044270E-02 3.967254720857E-01 -1.576784903388E-01
H70 -3.967254720857E-01 9.476845044270E-02 1.576784903388E-01
C71 4.726010453478E-01 -4.726010453478E-01 -5.000000000000E-01
C72 -4.108335492444E-01 -3.045190051163E-01 -4.499785967912E-01
C73 3.045190051163E-01 4.108335492444E-01 4.499785967912E-01
C74 -4.725807315102E-01 4.725807315102E-01 -5.000000000000E-01
C75 -2.345623279100E-01 -1.809391351700E-01 -4.109310164842E-01
C76 -4.737840080955E-01 -2.584898581594E-01 -4.268700168109E-01
C77 1.809391351700E-01 2.345623279100E-01 4.109310164842E-01
C78 2.584898581594E-01 4.737840080955E-01 4.268700168109E-01
C79 4.100187905019E-01 3.035610255737E-01 4.507911878686E-01
C80 -3.035610255737E-01 -4.100187905019E-01 -4.507911878686E-01
C81 -1.798001158687E-01 -2.336520660504E-01 -4.119745311551E-01
C82 -1.094313676091E-01 -6.036182806564E-03 -3.634365952400E-01
C83 -3.877727803091E-01 -1.037478741121E-01 -4.689139122974E-01
C84 3.945054335819E-01 -3.571625255033E-01 -3.540530964794E-01
C85 2.336520660504E-01 1.798001158687E-01 4.119745311551E-01
C86 6.036182806563E-03 1.094313676091E-01 3.634365952400E-01
C87 1.037478741121E-01 3.877727803091E-01 4.689139122974E-01
C88 3.571625255033E-01 -3.945054335819E-01 3.540530964794E-01
C89 4.747105660174E-01 2.595024033650E-01 4.265873524985E-01
C90 -2.595024033650E-01 -4.747105660174E-01 -4.265873524985E-01
C91 -2.350164183777E-03 -1.065776744516E-01 -3.670419954594E-01
H92 -1.506576844663E-01 3.318969056143E-02 -3.595154679068E-01
C93 5.858954337512E-02 1.108521656274E-01 -3.228688898995E-01
H94 -2.865486780396E-01 -2.686814016599E-02 4.740715548966E-01
C95 -4.299443123068E-01 -4.765556973365E-02 -4.382205466299E-01
H96 3.273154185286E-01 -4.768490636993E-01 -3.204312732469E-01
C97 3.493955437941E-01 -3.034861207394E-01 -3.239693362093E-01
C98 1.065776744516E-01 2.350164183777E-03 3.670419954594E-01
H99 -3.318969056143E-02 1.506576844663E-01 3.595154679068E-01
C100 -1.108521656274E-01 -5.858954337512E-02 3.228688898995E-01
H101 2.686814016599E-02 2.865486780396E-01 -4.740715548966E-01
C102 4.765556973365E-02 4.299443123068E-01 4.382205466299E-01
H103 4.768490636993E-01 -3.273154185286E-01 3.204312732469E-01
C104 3.034861207394E-01 -3.493955437941E-01 3.239693362093E-01
C105 4.020319470683E-01 1.147218899543E-01 4.716114027707E-01
C106 -4.029982811864E-01 3.526357697644E-01 3.494221464518E-01
C107 -1.147218899543E-01 -4.020319470683E-01 -4.716114027707E-01
C108 -3.526357697644E-01 4.029982811864E-01 -3.494221464518E-01
H109 3.912902625683E-02 -1.457191841026E-01 -3.664727722042E-01
C110 1.137401370662E-01 6.023802347379E-02 -3.251404340885E-01
H111 1.497235606675E-01 2.413885896201E-01 -2.871252369663E-01
H112 -3.605566358669E-01 7.380854878488E-02 -4.709314501944E-01
C113 4.380239402694E-01 -1.474520619575E-01 -3.657390270669E-01
H114 2.454529700090E-01 -3.837704046007E-01 -2.677363814325E-01
H115 1.457191841026E-01 -3.912902625683E-02 3.664727722042E-01
C116 -6.023802347379E-02 -1.137401370662E-01 3.251404340885E-01
H117 -2.413885896201E-01 -1.497235606675E-01 2.871252369663E-01
H118 -7.380854878488E-02 3.605566358669E-01 4.709314501944E-01
C119 1.474520619575E-01 -4.380239402694E-01 3.657390270669E-01
H120 3.837704046007E-01 -2.454529700090E-01 2.677363814325E-01
H121 3.069983222594E-01 4.092320086282E-02 -4.684420710965E-01
C122 4.503034795207E-01 6.479305830158E-02 4.402939822700E-01
H123 -3.474580323026E-01 4.635605847063E-01 3.132923251360E-01
C124 -3.522941992614E-01 3.049137091920E-01 3.184754529094E-01
H125 -4.092320086282E-02 -3.069983222594E-01 4.684420710965E-01
C126 -6.479305830158E-02 -4.503034795207E-01 -4.402939822700E-01
H127 -4.635605847063E-01 3.474580323026E-01 -3.132923251360E-01
C128 -3.049137091920E-01 3.522941992614E-01 -3.184754529094E-01
H129 2.467531232967E-01 1.535757457078E-01 -2.916335237457E-01
H130 4.052315495573E-01 -1.032745279143E-01 -3.423215096612E-01
H131 -1.535757457078E-01 -2.467531232967E-01 2.916335237457E-01
H132 1.032745279143E-01 -4.052315495573E-01 3.423215096612E-01
H133 3.910670327090E-01 -4.925842207389E-02 4.753580876069E-01
C134 -4.259010672331E-01 1.601748174535E-01 3.638908813090E-01
H135 -2.553311622834E-01 3.811647750507E-01 2.589909400116E-01
H136 4.925842207389E-02 -3.910670327090E-01 -4.753580876069E-01
C137 -1.601748174535E-01 4.259010672331E-01 -3.638908813090E-01
H138 -3.811647750507E-01 2.553311622834E-01 -2.589909400116E-01
H139 -3.882643112473E-01 1.208965784384E-01 3.401730790608E-01
H140 -1.208965784384E-01 3.882643112473E-01 -3.401730790608E-01


#===END
