###############################################################
#
#primitive cell cif file
#
###############################################################

posm40_data

_symmetry_space_group_name_H-M 'P 1'
_cell_length_a      13.86596031
_cell_length_b      13.86596031
_cell_length_c      14.21100000
_cell_angle_alpha   90.000000
_cell_angle_beta    90.000000
_cell_angle_gamma   150.032293

loop_
_atom_site_label
_atom_site_fract_x
_atom_site_fract_y
_atom_site_fract_z
C1 2.735828706126E-02 -2.735828706126E-02 0.000000000000E+00
C2 -9.190913019693E-02 -1.981755374206E-01 4.791261128358E-02
C3 1.981755374206E-01 9.190913019693E-02 -4.791261128358E-02
C4 -2.735828706126E-02 2.735828706126E-02 0.000000000000E+00
C5 -2.681653856833E-01 -3.218813419407E-01 8.687482925311E-02
C6 -2.808102844801E-02 -2.430469125952E-01 7.162433783245E-02
C7 3.218813419407E-01 2.681653856833E-01 -8.687482925311E-02
C8 2.430469125952E-01 2.808102844801E-02 -7.162433783245E-02
C9 9.190913019693E-02 1.981755374206E-01 -4.791261128358E-02
C10 -1.981755374206E-01 -9.190913019693E-02 4.791261128358E-02
C11 -3.218813419407E-01 -2.681653856833E-01 8.687482925311E-02
C12 -3.924553666767E-01 -4.962408739872E-01 1.345968298406E-01
C13 -1.075359117808E-01 -3.933816075929E-01 2.903110455190E-02
C14 1.000342336376E-01 -1.450812490273E-01 1.462883289210E-01
C15 2.681653856833E-01 3.218813419407E-01 -8.687482925311E-02
C16 4.962408739872E-01 3.924553666767E-01 -1.345968298406E-01
C17 3.933816075929E-01 1.075359117808E-01 -2.903110455190E-02
C18 1.450812490273E-01 -1.000342336376E-01 -1.462883289210E-01
C19 2.808102844801E-02 2.430469125952E-01 -7.162433783245E-02
C20 -2.430469125952E-01 -2.808102844801E-02 7.162433783245E-02
C21 -4.962408739872E-01 -3.924553666767E-01 1.345968298406E-01
H22 -3.523564931253E-01 4.633227596469E-01 1.366870809417E-01
C23 4.430419560117E-01 3.901591998728E-01 1.783879802753E-01
H24 -2.063701700842E-01 -4.700829851368E-01 -2.926479757695E-02
C25 -6.106258860378E-02 -4.449060992983E-01 6.078142403096E-02
H26 1.610538745907E-01 -2.944991021304E-02 1.802627662298E-01
C27 1.492649351218E-01 -1.941572092278E-01 1.774623862543E-01
C28 3.924553666767E-01 4.962408739872E-01 -1.345968298406E-01
H29 -4.633227596469E-01 3.523564931253E-01 -1.366870809417E-01
C30 -3.901591998728E-01 -4.430419560117E-01 -1.783879802753E-01
H31 4.700829851368E-01 2.063701700842E-01 2.926479757695E-02
C32 4.449060992983E-01 6.106258860378E-02 -6.078142403096E-02
H33 2.944991021304E-02 -1.610538745907E-01 -1.802627662298E-01
C34 1.941572092278E-01 -1.492649351218E-01 -1.774623862543E-01
C35 1.075359117808E-01 3.933816075929E-01 -2.903110455190E-02
C36 -1.000342336376E-01 1.450812490273E-01 -1.462883289210E-01
C37 -3.933816075929E-01 -1.075359117808E-01 2.903110455190E-02
C38 -1.450812490273E-01 1.000342336376E-01 1.462883289210E-01
H39 4.633227596469E-01 -3.523564931253E-01 1.366870809417E-01
C40 3.901591998728E-01 4.430419560117E-01 1.783879802753E-01
H41 3.532601457523E-01 2.607340992943E-01 2.149115880065E-01
H42 -1.251713566318E-01 4.369743954895E-01 2.772826223074E-02
C43 6.816308436584E-02 -3.451077801633E-01 1.348666681484E-01
H44 2.505758419987E-01 -1.144287367708E-01 2.350586250056E-01
H45 3.523564931253E-01 -4.633227596469E-01 -1.366870809417E-01
C46 -4.430419560117E-01 -3.901591998728E-01 -1.783879802753E-01
H47 -2.607340992943E-01 -3.532601457523E-01 -2.149115880065E-01
H48 -4.369743954895E-01 1.251713566318E-01 -2.772826223074E-02
C49 3.451077801633E-01 -6.816308436584E-02 -1.348666681484E-01
H50 1.144287367708E-01 -2.505758419987E-01 -2.350586250056E-01
H51 2.063701700842E-01 4.700829851368E-01 2.926479757695E-02
C52 6.106258860378E-02 4.449060992983E-01 -6.078142403096E-02
H53 -1.610538745907E-01 2.944991021304E-02 -1.802627662298E-01
C54 -1.492649351218E-01 1.941572092278E-01 -1.774623862543E-01
H55 -4.700829851368E-01 -2.063701700842E-01 -2.926479757695E-02
C56 -4.449060992983E-01 -6.106258860378E-02 6.078142403096E-02
H57 -2.944991021304E-02 1.610538745907E-01 1.802627662298E-01
C58 -1.941572092278E-01 1.492649351218E-01 1.774623862543E-01
H59 2.607340992943E-01 3.532601457523E-01 2.149115880065E-01
H60 1.044669543161E-01 -3.855756629044E-01 1.589371720270E-01
H61 -3.532601457523E-01 -2.607340992943E-01 -2.149115880065E-01
H62 3.855756629044E-01 -1.044669543161E-01 -1.589371720270E-01
H63 1.251713566318E-01 -4.369743954895E-01 -2.772826223074E-02
C64 -6.816308436584E-02 3.451077801633E-01 -1.348666681484E-01
H65 -2.505758419987E-01 1.144287367708E-01 -2.350586250056E-01
H66 4.369743954895E-01 -1.251713566318E-01 2.772826223074E-02
C67 -3.451077801633E-01 6.816308436584E-02 1.348666681484E-01
H68 -1.144287367708E-01 2.505758419987E-01 2.350586250056E-01
H69 -1.044669543161E-01 3.855756629044E-01 -1.589371720270E-01
H70 -3.855756629044E-01 1.044669543161E-01 1.589371720270E-01
C71 4.725400639192E-01 -4.725400639192E-01 -5.000000000000E-01
C72 -4.127614699433E-01 -3.062555681106E-01 -4.486823959434E-01
C73 3.062555681106E-01 4.127614699433E-01 4.486823959434E-01
C74 -4.725400639192E-01 4.725400639192E-01 -5.000000000000E-01
C75 -2.363797796437E-01 -1.826205929794E-01 -4.097803768924E-01
C76 -4.765756025609E-01 -2.610391741197E-01 -4.250817071419E-01
C77 1.826205929794E-01 2.363797796437E-01 4.097803768924E-01
C78 2.610391741197E-01 4.765756025609E-01 4.250817071419E-01
C79 4.127614699433E-01 3.062555681106E-01 4.486823959434E-01
C80 -3.062555681106E-01 -4.127614699433E-01 -4.486823959434E-01
C81 -1.826205929794E-01 -2.363797796437E-01 -4.097803768924E-01
C82 -1.084644087374E-01 -4.627220977548E-03 -3.650754205399E-01
C83 -3.973406391582E-01 -1.118513716594E-01 -4.695564196201E-01
C84 3.975379484060E-01 -3.548795442950E-01 -3.497635718522E-01
C85 2.363797796437E-01 1.826205929794E-01 4.097803768924E-01
C86 4.627220977548E-03 1.084644087374E-01 3.650754205399E-01
C87 1.118513716594E-01 3.973406391582E-01 4.695564196201E-01
C88 3.548795442950E-01 -3.975379484060E-01 3.497635718522E-01
C89 4.765756025609E-01 2.610391741197E-01 4.250817071419E-01
C90 -2.610391741197E-01 -4.765756025609E-01 -4.250817071419E-01
C91 -4.627220977548E-03 -1.084644087374E-01 -3.650754205399E-01
H92 -1.487333616942E-01 3.564147646519E-02 -3.626753210528E-01
C93 6.186952286060E-02 1.147515025665E-01 -3.263973042633E-01
H94 -2.999171703831E-01 -3.787432616556E-02 4.717784235701E-01
C95 -4.413103804313E-01 -5.735472733354E-02 -4.392959529308E-01
H96 3.358273254220E-01 -4.698595586186E-01 -3.139863646128E-01
C97 3.509546781773E-01 -3.025570391591E-01 -3.199071753730E-01
C98 1.084644087374E-01 4.627220977548E-03 3.650754205399E-01
H99 -3.564147646519E-02 1.487333616942E-01 3.626753210528E-01
C100 -1.147515025665E-01 -6.186952286060E-02 3.263973042633E-01
H101 3.787432616556E-02 2.999171703831E-01 -4.717784235701E-01
C102 5.735472733354E-02 4.413103804313E-01 4.392959529308E-01
H103 4.698595586186E-01 -3.358273254220E-01 3.139863646128E-01
C104 3.025570391591E-01 -3.509546781773E-01 3.199071753730E-01
C105 3.973406391582E-01 1.118513716594E-01 4.695564196201E-01
C106 -3.975379484060E-01 3.548795442950E-01 3.497635718522E-01
C107 -1.118513716594E-01 -3.973406391582E-01 -4.695564196201E-01
C108 -3.548795442950E-01 3.975379484060E-01 -3.497635718522E-01
H109 3.564147646519E-02 -1.487333616942E-01 -3.626753210528E-01
C110 1.147515025665E-01 6.186952286060E-02 -3.263973042633E-01
H111 1.565594521276E-01 2.488758122111E-01 -2.936703487185E-01
H112 -3.767950252077E-01 6.004136634830E-02 -4.740178000320E-01
C113 4.320880918683E-01 -1.527346595743E-01 -3.644965765243E-01
H114 2.513599742911E-01 -3.793639164222E-01 -2.617859464497E-01
H115 1.487333616942E-01 -3.564147646519E-02 3.626753210528E-01
C116 -6.186952286060E-02 -1.147515025665E-01 3.263973042633E-01
H117 -2.488758122111E-01 -1.565594521276E-01 2.936703487185E-01
H118 -6.004136634830E-02 3.767950252077E-01 4.740178000320E-01
C119 1.527346595743E-01 -4.320880918683E-01 3.644965765243E-01
H120 3.793639164222E-01 -2.513599742911E-01 2.617859464497E-01
H121 2.999171703831E-01 3.787432616556E-02 -4.717784235701E-01
C122 4.413103804313E-01 5.735472733354E-02 4.392959529308E-01
H123 -3.358273254220E-01 4.698595586186E-01 3.139863646128E-01
C124 -3.509546781773E-01 3.025570391591E-01 3.199071753730E-01
H125 -3.787432616556E-02 -2.999171703831E-01 4.717784235701E-01
C126 -5.735472733354E-02 -4.413103804313E-01 -4.392959529308E-01
H127 -4.698595586186E-01 3.358273254220E-01 -3.139863646128E-01
C128 -3.025570391591E-01 3.509546781773E-01 -3.199071753730E-01
H129 2.488758122111E-01 1.565594521276E-01 -2.936703487185E-01
H130 3.979628151207E-01 -1.097467692571E-01 -3.414317607489E-01
H131 -1.565594521276E-01 -2.488758122111E-01 2.936703487185E-01
H132 1.097467692571E-01 -3.979628151207E-01 3.414317607489E-01
H133 3.767950252077E-01 -6.004136634830E-02 4.740178000320E-01
C134 -4.320880918683E-01 1.527346595743E-01 3.644965765243E-01
H135 -2.513599742911E-01 3.793639164222E-01 2.617859464497E-01
H136 6.004136634830E-02 -3.767950252077E-01 -4.740178000320E-01
C137 -1.527346595743E-01 4.320880918683E-01 -3.644965765243E-01
H138 -3.793639164222E-01 2.513599742911E-01 -2.617859464497E-01
H139 -3.979628151207E-01 1.097467692571E-01 3.414317607489E-01
H140 -1.097467692571E-01 3.979628151207E-01 -3.414317607489E-01


#===END
