###############################################################
#
#primitive cell cif file
#
###############################################################

posm34_data

_symmetry_space_group_name_H-M 'P 1'
_cell_length_a      13.86596031
_cell_length_b      13.86596031
_cell_length_c      14.21100000
_cell_angle_alpha   90.000000
_cell_angle_beta    90.000000
_cell_angle_gamma   150.032293

loop_
_atom_site_label
_atom_site_fract_x
_atom_site_fract_y
_atom_site_fract_z
C1 2.730985352406E-02 -2.730985352406E-02 0.000000000000E+00
C2 -8.780794668594E-02 -1.940091150268E-01 5.091025494525E-02
C3 1.940091150268E-01 8.780794668594E-02 -5.091025494525E-02
C4 -2.750836961798E-02 2.750836961798E-02 0.000000000000E+00
C5 -2.642079542816E-01 -3.179894161726E-01 8.981899627507E-02
C6 -2.382065468865E-02 -2.388971498717E-01 7.441497255056E-02
C7 3.179894161726E-01 2.642079542816E-01 -8.981899627507E-02
C8 2.388971498717E-01 2.382065468865E-02 -7.441497255056E-02
C9 9.133971356773E-02 1.979108542833E-01 -4.831996039498E-02
C10 -1.979108542833E-01 -9.133971356773E-02 4.831996039498E-02
C11 -3.212713327887E-01 -2.675776517580E-01 8.727545608564E-02
C12 -3.876393895304E-01 -4.917080778456E-01 1.380028954236E-01
C13 -1.041547460982E-01 -3.888356501733E-01 3.010031611730E-02
C14 1.026095944457E-01 -1.445086805539E-01 1.494643756838E-01
C15 2.675776517580E-01 3.212713327887E-01 -8.727545608564E-02
C16 4.917080778456E-01 3.876393895304E-01 -1.380028954236E-01
C17 3.888356501733E-01 1.041547460982E-01 -3.010031611730E-02
C18 1.445086805539E-01 -1.026095944457E-01 -1.494643756838E-01
C19 2.768477119844E-02 2.431105886038E-01 -7.212765814003E-02
C20 -2.431105886038E-01 -2.768477119844E-02 7.212765814003E-02
C21 -4.999055751641E-01 -3.963515684089E-01 1.315185138771E-01
H22 -3.444181367824E-01 4.710496525877E-01 1.424662205145E-01
C23 4.432443017882E-01 3.898622851630E-01 1.779087981096E-01
H24 -2.022404464420E-01 -4.631386896666E-01 -2.826628284364E-02
C25 -6.024784005718E-02 -4.434144114767E-01 6.023181062233E-02
H26 1.644973793625E-01 -2.929712322577E-02 1.850989413181E-01
C27 1.490639588593E-01 -1.969933687514E-01 1.791615716390E-01
C28 3.963515684089E-01 4.999055751641E-01 -1.315185138771E-01
H29 -4.710496525877E-01 3.444181367824E-01 -1.424662205145E-01
C30 -3.898622851630E-01 -4.432443017882E-01 -1.779087981096E-01
H31 4.631386896666E-01 2.022404464420E-01 2.826628284364E-02
C32 4.434144114767E-01 6.024784005718E-02 -6.023181062233E-02
H33 2.929712322577E-02 -1.644973793625E-01 -1.850989413181E-01
C34 1.969933687514E-01 -1.490639588593E-01 -1.791615716390E-01
C35 1.060405265245E-01 3.926945857603E-01 -2.937436881451E-02
C36 -9.988669078594E-02 1.456930241784E-01 -1.470603813849E-01
C37 -3.926945857603E-01 -1.060405265245E-01 2.937436881451E-02
C38 -1.456930241784E-01 9.988669078594E-02 1.470603813849E-01
H39 4.566316305940E-01 -3.592049946487E-01 1.315455393744E-01
C40 3.855454121434E-01 4.379281313629E-01 1.740818779023E-01
H41 3.531468191545E-01 2.600833423599E-01 2.141541819341E-01
H42 -1.251814418104E-01 4.388388916218E-01 2.568414938069E-02
C43 6.712250617045E-02 -3.474026649576E-01 1.347141524773E-01
H44 2.490608978050E-01 -1.200318200963E-01 2.370753321215E-01
H45 3.592049946487E-01 -4.566316305940E-01 -1.315455393744E-01
C46 -4.379281313629E-01 -3.855454121434E-01 -1.740818779023E-01
H47 -2.600833423599E-01 -3.531468191545E-01 -2.141541819341E-01
H48 -4.388388916218E-01 1.251814418104E-01 -2.568414938069E-02
C49 3.474026649576E-01 -6.712250617045E-02 -1.347141524773E-01
H50 1.200318200963E-01 -2.490608978050E-01 -2.370753321215E-01
H51 2.042125532591E-01 4.690699693046E-01 2.922009116325E-02
C52 5.950436811529E-02 4.441369604881E-01 -6.125366047780E-02
H53 -1.607291698063E-01 3.029322836863E-02 -1.811774602990E-01
C54 -1.492462980852E-01 1.946068013173E-01 -1.783936392423E-01
H55 -4.690699693046E-01 -2.042125532591E-01 -2.922009116325E-02
C56 -4.441369604881E-01 -5.950436811529E-02 6.125366047780E-02
H57 -3.029322836863E-02 1.607291698063E-01 1.811774602990E-01
C58 -1.946068013173E-01 1.492462980852E-01 1.783936392423E-01
H59 2.517749447233E-01 3.435538744702E-01 2.070870573540E-01
H60 1.011786390125E-01 -3.904700615776E-01 1.577236550210E-01
H61 -3.435538744702E-01 -2.517749447233E-01 -2.070870573540E-01
H62 3.904700615776E-01 -1.011786390125E-01 -1.577236550210E-01
H63 1.231948896137E-01 -4.380941375194E-01 -2.802631281803E-02
C64 -6.895248632708E-02 3.449704556314E-01 -1.356559391468E-01
H65 -2.501549699025E-01 1.150330002523E-01 -2.361973464345E-01
H66 4.380941375194E-01 -1.231948896137E-01 2.802631281803E-02
C67 -3.449704556314E-01 6.895248632708E-02 1.356559391468E-01
H68 -1.150330002523E-01 2.501549699025E-01 2.361973464345E-01
H69 -1.053255001829E-01 3.853588320696E-01 -1.597817562571E-01
H70 -3.853588320696E-01 1.053255001829E-01 1.597817562571E-01
C71 4.726901464759E-01 -4.726901464759E-01 -5.000000000000E-01
C72 -4.121920533141E-01 -3.059908849732E-01 -4.490897450547E-01
C73 3.059908849732E-01 4.121920533141E-01 4.490897450547E-01
C74 -4.724916303820E-01 4.724916303820E-01 -5.000000000000E-01
C75 -2.357920457184E-01 -1.820105838274E-01 -4.101810037249E-01
C76 -4.761793453114E-01 -2.611028501283E-01 -4.255850274494E-01
C77 1.820105838274E-01 2.357920457184E-01 4.101810037249E-01
C78 2.611028501283E-01 4.761793453114E-01 4.255850274494E-01
C79 4.086602864323E-01 3.020891457167E-01 4.516800396050E-01
C80 -3.020891457167E-01 -4.086602864323E-01 -4.516800396050E-01
C81 -1.787286672113E-01 -2.324223482420E-01 -4.127245439144E-01
C82 -1.123606104696E-01 -8.291922154430E-03 -3.619971045764E-01
C83 -3.958452539018E-01 -1.111643498267E-01 -4.698996838827E-01
C84 3.973904055543E-01 -3.554913194461E-01 -3.505356243162E-01
C85 2.324223482420E-01 1.787286672113E-01 4.127245439144E-01
C86 8.291922154430E-03 1.123606104696E-01 3.619971045764E-01
C87 1.111643498267E-01 3.958452539018E-01 4.698996838827E-01
C88 3.554913194461E-01 -3.973904055543E-01 3.505356243162E-01
C89 4.723152288016E-01 2.568894113962E-01 4.278723418600E-01
C90 -2.568894113962E-01 -4.723152288016E-01 -4.278723418600E-01
C91 -9.442483591093E-05 -1.036484315911E-01 -3.684814861229E-01
H92 -1.555818632176E-01 2.895034741229E-02 -3.575337794855E-01
C93 5.675569821178E-02 1.101377148370E-01 -3.220912018904E-01
H94 -2.977595535580E-01 -3.686131033344E-02 4.717337171564E-01
C95 -4.397521599428E-01 -5.658558852329E-02 -4.397681893777E-01
H96 3.355026206375E-01 -4.707028767742E-01 -3.149010586819E-01
C97 3.509360411407E-01 -3.030066312486E-01 -3.208384283610E-01
C98 1.036484315911E-01 9.442483591093E-05 3.684814861229E-01
H99 -2.895034741229E-02 1.555818632176E-01 3.575337794855E-01
C100 -1.101377148370E-01 -5.675569821178E-02 3.220912018904E-01
H101 3.686131033344E-02 2.977595535580E-01 -4.717337171564E-01
C102 5.658558852329E-02 4.397521599428E-01 4.397681893777E-01
H103 4.707028767742E-01 -3.355026206375E-01 3.149010586819E-01
C104 3.030066312486E-01 -3.509360411407E-01 3.208384283610E-01
C105 3.939594734755E-01 1.073054142397E-01 4.706256311855E-01
C106 -4.001133092141E-01 3.543069758216E-01 3.529396186151E-01
C107 -1.073054142397E-01 -3.939594734755E-01 -4.706256311855E-01
C108 -3.543069758216E-01 4.001133092141E-01 -3.529396186151E-01
H109 4.336836940596E-02 -1.407950053513E-01 -3.684544606256E-01
C110 1.144545878566E-01 6.207186863713E-02 -3.259181220977E-01
H111 1.468531808455E-01 2.399166576401E-01 -2.858458180659E-01
H112 -3.748185581896E-01 6.116110837817E-02 -4.743158506193E-01
C113 4.328774938295E-01 -1.525973350424E-01 -3.652858475227E-01
H114 2.509391021950E-01 -3.799681799037E-01 -2.629246678785E-01
H115 1.407950053513E-01 -4.336836940596E-02 3.684544606256E-01
C116 -6.207186863713E-02 -1.144545878566E-01 3.259181220977E-01
H117 -2.399166576401E-01 -1.468531808455E-01 2.858458180659E-01
H118 -6.116110837817E-02 3.748185581896E-01 4.743158506193E-01
C119 1.525973350424E-01 -4.328774938295E-01 3.652858475227E-01
H120 3.799681799037E-01 -2.509391021950E-01 2.629246678785E-01
H121 2.957874467409E-01 3.093003069536E-02 -4.707799088367E-01
C122 4.404956318847E-01 5.586303951194E-02 4.387463395222E-01
H123 -3.392708301937E-01 4.697067716314E-01 3.188225397010E-01
C124 -3.507537019148E-01 3.053931986827E-01 3.216063607577E-01
H125 -3.093003069536E-02 -2.957874467409E-01 4.707799088367E-01
C126 -5.586303951194E-02 -4.404956318847E-01 -4.387463395222E-01
H127 -4.697067716314E-01 3.392708301937E-01 -3.188225397010E-01
C128 -3.053931986827E-01 3.507537019148E-01 -3.216063607577E-01
H129 2.482250552767E-01 1.564461255298E-01 -2.929129426460E-01
H130 3.988213609875E-01 -1.095299384224E-01 -3.422763449790E-01
H131 -1.564461255298E-01 -2.482250552767E-01 2.929129426460E-01
H132 1.095299384224E-01 -3.988213609875E-01 3.422763449790E-01
H133 3.768051103863E-01 -6.190586248060E-02 4.719736871820E-01
C134 -4.310475136729E-01 1.550295443686E-01 3.643440608532E-01
H135 -2.498450300975E-01 3.849669997477E-01 2.638026535655E-01
H136 6.190586248060E-02 -3.768051103863E-01 -4.719736871820E-01
C137 -1.550295443686E-01 4.310475136729E-01 -3.643440608532E-01
H138 -3.849669997477E-01 2.498450300975E-01 -2.638026535655E-01
H139 -3.946744998171E-01 1.146411679304E-01 3.402182437429E-01
H140 -1.146411679304E-01 3.946744998171E-01 -3.402182437429E-01


#===END
