###############################################################
#
#primitive cell cif file
#
###############################################################

posm17_data

_symmetry_space_group_name_H-M 'P 1'
_cell_length_a      13.86596031
_cell_length_b      13.86596031
_cell_length_c      14.21100000
_cell_angle_alpha   90.000000
_cell_angle_beta    90.000000
_cell_angle_gamma   150.032293

loop_
_atom_site_label
_atom_site_fract_x
_atom_site_fract_y
_atom_site_fract_z
C1 2.210939542499E-02 -3.270882771704E-02 -1.110204394483E-04
C2 -9.448213670954E-02 -2.007816731987E-01 4.985396119140E-02
C3 1.911382961114E-01 8.466552354413E-02 -4.937625414883E-02
C4 -3.270882771704E-02 2.210939542499E-02 -1.110204394483E-04
C5 -2.701528988442E-01 -3.238932191820E-01 8.934821793280E-02
C6 -2.834862716145E-02 -2.433813428882E-01 7.356063162226E-02
C7 3.153675297792E-01 2.616327071954E-01 -8.774623442791E-02
C8 2.386263955873E-01 2.315679872564E-02 -7.298199906833E-02
C9 8.466552354413E-02 1.911382961114E-01 -4.937625414883E-02
C10 -2.007816731987E-01 -9.448213670954E-02 4.985396119140E-02
C11 -3.238932191820E-01 -2.701528988442E-01 8.934821793280E-02
C12 -3.952682574348E-01 -4.991443830966E-01 1.362046122910E-01
C13 -1.032667117719E-01 -3.900679128230E-01 2.952605181782E-02
C14 9.995184564474E-02 -1.450324052924E-01 1.482636264658E-01
C15 2.616327071954E-01 3.153675297792E-01 -8.774623442791E-02
C16 4.924692699131E-01 3.887227005045E-01 -1.333167970096E-01
C17 3.914623231105E-01 1.069285608507E-01 -2.994863311400E-02
C18 1.451692994399E-01 -1.025444395869E-01 -1.482611306029E-01
C19 2.315679872564E-02 2.386263955873E-01 -7.298199906833E-02
C20 -2.433813428882E-01 -2.834862716145E-02 7.356063162226E-02
C21 -4.991443830966E-01 -3.952682574348E-01 1.362046122910E-01
H22 -3.548715595870E-01 4.606805029655E-01 1.382964967707E-01
C23 4.381759568439E-01 3.852759601608E-01 1.781851839764E-01
H24 -2.023164025781E-01 -4.672395373405E-01 -2.875637445767E-02
C25 -5.105053677327E-02 -4.366187024967E-01 5.929472964971E-02
H26 1.576660099661E-01 -3.218847264919E-02 1.834507845826E-01
C27 1.543905506920E-01 -1.895705280440E-01 1.776949905581E-01
C28 3.887227005045E-01 4.924692699131E-01 -1.333167970096E-01
H29 -4.670007802163E-01 3.487515718441E-01 -1.357152631182E-01
C30 -3.901317371456E-01 -4.429964763072E-01 -1.738054920355E-01
H31 4.649691216307E-01 2.041365971230E-01 2.872999954922E-02
C32 4.509326694680E-01 6.870167139920E-02 -6.219074145043E-02
H33 2.740187894522E-02 -1.675605392027E-01 -1.828256170345E-01
C34 2.020296420246E-01 -1.439197062525E-01 -1.798602203232E-01
C35 1.069285608507E-01 3.914623231105E-01 -2.994863311400E-02
C36 -1.025444395869E-01 1.451692994399E-01 -1.482611306029E-01
C37 -3.900679128230E-01 -1.032667117719E-01 2.952605181782E-02
C38 -1.450324052924E-01 9.995184564474E-02 1.482636264658E-01
H39 4.606805029655E-01 -3.548715595870E-01 1.382964967707E-01
C40 3.852759601608E-01 4.381759568439E-01 1.781851839764E-01
H41 3.466198399092E-01 2.541982181324E-01 2.133599492699E-01
H42 -1.110208513541E-01 4.486519678035E-01 2.470365858546E-02
C43 7.869055435471E-02 -3.361251501360E-01 1.332065035378E-01
H44 2.557921743570E-01 -1.095407403564E-01 2.352702016541E-01
H45 3.487515718441E-01 -4.670007802163E-01 -1.357152631182E-01
C46 -4.429964763072E-01 -3.901317371456E-01 -1.738054920355E-01
H47 -2.576600689509E-01 -3.500808537155E-01 -2.078812900181E-01
H48 -4.282810613377E-01 1.373554800699E-01 -2.900680361326E-02
C49 3.562479704530E-01 -5.738443814283E-02 -1.371635880863E-01
H50 1.255240799922E-01 -2.434236933506E-01 -2.380024769018E-01
H51 2.041365971230E-01 4.649691216307E-01 2.872999954922E-02
C52 6.870167139920E-02 4.509326694680E-01 -6.219074145043E-02
H53 -1.675605392027E-01 2.740187894522E-02 -1.828256170345E-01
C54 -1.439197062525E-01 2.020296420246E-01 -1.798602203232E-01
H55 -4.672395373405E-01 -2.023164025781E-01 -2.875637445767E-02
C56 -4.366187024967E-01 -5.105053677327E-02 5.929472964971E-02
H57 -3.218847264919E-02 1.576660099661E-01 1.834507845826E-01
C58 -1.895705280440E-01 1.543905506920E-01 1.776949905581E-01
H59 2.541982181324E-01 3.466198399092E-01 2.133599492699E-01
H60 1.194621849612E-01 -3.727288960658E-01 1.557002176689E-01
H61 -3.500808537155E-01 -2.576600689509E-01 -2.078812900181E-01
H62 4.030999975814E-01 -8.704195423416E-02 -1.618051936091E-01
H63 1.373554800699E-01 -4.282810613377E-01 -2.900680361326E-02
C64 -5.738443814283E-02 3.562479704530E-01 -1.371635880863E-01
H65 -2.434236933506E-01 1.255240799922E-01 -2.380024769018E-01
H66 4.486519678035E-01 -1.110208513541E-01 2.470365858546E-02
C67 -3.361251501360E-01 7.869055435471E-02 1.332065035378E-01
H68 -1.095407403564E-01 2.557921743570E-01 2.352702016541E-01
H69 -8.704195423416E-02 4.030999975814E-01 -1.618051936091E-01
H70 -3.727288960658E-01 1.194621849612E-01 1.557002176689E-01
C71 4.778906045750E-01 -4.672911722830E-01 4.998889795606E-01
C72 -4.055178632905E-01 -2.992183268013E-01 -4.501460388086E-01
C73 3.088617038886E-01 4.153344764559E-01 4.506237458512E-01
C74 -4.672911722830E-01 4.778906045750E-01 4.998889795606E-01
C75 -2.298471011558E-01 -1.761067808180E-01 -4.106517820672E-01
C76 -4.716513728386E-01 -2.566186571118E-01 -4.264393683777E-01
C77 1.846324702208E-01 2.383672928046E-01 4.122537655721E-01
C78 2.613736044127E-01 4.768432012744E-01 4.270180009317E-01
C79 4.153344764559E-01 3.088617038886E-01 4.506237458512E-01
C80 -2.992183268013E-01 -4.055178632905E-01 -4.501460388086E-01
C81 -1.761067808180E-01 -2.298471011558E-01 -4.106517820672E-01
C82 -1.047317425652E-01 -8.556169034091E-04 -3.637953877090E-01
C83 -3.967332882281E-01 -1.099320871770E-01 -4.704739481822E-01
C84 4.000481543553E-01 -3.549675947076E-01 -3.517363735342E-01
C85 2.383672928046E-01 1.846324702208E-01 4.122537655721E-01
C86 7.530730086932E-03 1.112772994955E-01 3.666832029904E-01
C87 1.085376768895E-01 3.930714391493E-01 4.700513668860E-01
C88 3.548307005601E-01 -3.974555604131E-01 3.517388693971E-01
C89 4.768432012744E-01 2.613736044127E-01 4.270180009317E-01
C90 -2.566186571118E-01 -4.716513728386E-01 -4.264393683777E-01
C91 -8.556169034088E-04 -1.047317425652E-01 -3.637953877090E-01
H92 -1.451284404130E-01 3.931949703451E-02 -3.617035032293E-01
C93 6.182404315607E-02 1.147240398392E-01 -3.218148160236E-01
H94 -2.976835974219E-01 -3.276046265952E-02 4.712436255423E-01
C95 -4.489494632267E-01 -6.338129750326E-02 -4.407052703503E-01
H96 3.423339900339E-01 -4.678115273508E-01 -3.165492154174E-01
C97 3.456094493080E-01 -3.104294719560E-01 -3.223050094419E-01
C98 1.112772994955E-01 7.530730086932E-03 3.666832029904E-01
H99 -3.299921978375E-02 1.512484281559E-01 3.642847368818E-01
C100 -1.098682628544E-01 -5.700352369284E-02 3.261945079645E-01
H101 3.503087836928E-02 2.958634028770E-01 -4.712700004508E-01
C102 4.906733053197E-02 4.312983286008E-01 4.378092585496E-01
H103 4.725981210548E-01 -3.324394607973E-01 3.171743829655E-01
C104 2.979703579754E-01 -3.560802937475E-01 3.201397796768E-01
C105 3.930714391493E-01 1.085376768895E-01 4.700513668860E-01
C106 -3.974555604131E-01 3.548307005601E-01 3.517388693971E-01
C107 -1.099320871770E-01 -3.967332882281E-01 -4.704739481822E-01
C108 -3.549675947076E-01 4.000481543553E-01 -3.517363735342E-01
H109 3.931949703451E-02 -1.451284404130E-01 -3.617035032293E-01
C110 1.147240398392E-01 6.182404315607E-02 -3.218148160236E-01
H111 1.533801600908E-01 2.458017818676E-01 -2.866400507301E-01
H112 -3.889791486459E-01 5.134803219649E-02 -4.752963414145E-01
C113 4.213094456453E-01 -1.638748498640E-01 -3.667934964622E-01
H114 2.442078256430E-01 -3.904592596436E-01 -2.647297983459E-01
H115 1.512484281559E-01 -3.299921978375E-02 3.642847368818E-01
C116 -5.700352369284E-02 -1.098682628544E-01 3.261945079645E-01
H117 -2.423399310491E-01 -1.499191462845E-01 2.921187099819E-01
H118 -7.171893866228E-02 3.626445199301E-01 4.709931963867E-01
C119 1.437520295470E-01 -4.426155618572E-01 3.628364119137E-01
H120 3.744759200078E-01 -2.565763066494E-01 2.619975230982E-01
H121 2.958634028770E-01 3.503087836928E-02 -4.712700004508E-01
C122 4.312983286008E-01 4.906733053197E-02 4.378092585496E-01
H123 -3.324394607973E-01 4.725981210548E-01 3.171743829655E-01
C124 -3.560802937475E-01 2.979703579754E-01 3.201397796768E-01
H125 -3.276046265952E-02 -2.976835974219E-01 4.712436255423E-01
C126 -6.338129750326E-02 -4.489494632267E-01 -4.407052703503E-01
H127 -4.678115273508E-01 3.423339900339E-01 -3.165492154174E-01
C128 -3.104294719560E-01 3.456094493080E-01 -3.223050094419E-01
H129 2.458017818676E-01 1.533801600908E-01 -2.866400507301E-01
H130 3.805378150388E-01 -1.272711039342E-01 -3.442997823311E-01
H131 -1.499191462845E-01 -2.423399310491E-01 2.921187099819E-01
H132 9.690000241856E-02 -4.129580457658E-01 3.381948063909E-01
H133 3.626445199301E-01 -7.171893866228E-02 4.709931963867E-01
C134 -4.426155618572E-01 1.437520295470E-01 3.628364119137E-01
H135 -2.565763066494E-01 3.744759200078E-01 2.619975230982E-01
H136 5.134803219649E-02 -3.889791486459E-01 -4.752963414145E-01
C137 -1.638748498640E-01 4.213094456453E-01 -3.667934964622E-01
H138 -3.904592596436E-01 2.442078256430E-01 -2.647297983459E-01
H139 -4.129580457658E-01 9.690000241856E-02 3.381948063909E-01
H140 -1.272711039342E-01 3.805378150388E-01 -3.442997823311E-01


#===END
