###############################################################
#
#primitive cell cif file
#
###############################################################

posm41_data

_symmetry_space_group_name_H-M 'P 1'
_cell_length_a      13.86596031
_cell_length_b      13.86596031
_cell_length_c      14.21100000
_cell_angle_alpha   90.000000
_cell_angle_beta    90.000000
_cell_angle_gamma   150.032293

loop_
_atom_site_label
_atom_site_fract_x
_atom_site_fract_y
_atom_site_fract_z
C1 2.746798186371E-02 -2.746798186371E-02 0.000000000000E+00
C2 -8.773184776620E-02 -1.942741337802E-01 5.098731644135E-02
C3 1.942741337802E-01 8.773184776620E-02 -5.098731644135E-02
C4 -2.746798186371E-02 2.746798186371E-02 0.000000000000E+00
C5 -2.640787474737E-01 -3.178354795770E-01 8.994147125009E-02
C6 -2.426720433888E-02 -2.398594995370E-01 7.455001007522E-02
C7 3.178354795770E-01 2.640787474737E-01 -8.994147125009E-02
C8 2.398594995370E-01 2.426720433888E-02 -7.455001007522E-02
C9 8.773184776620E-02 1.942741337802E-01 -5.098731644135E-02
C10 -1.942741337802E-01 -8.773184776620E-02 5.098731644135E-02
C11 -3.178354795770E-01 -2.640787474737E-01 8.994147125009E-02
C12 -3.919755837204E-01 -4.957560308986E-01 1.347345959135E-01
C13 -1.063018782324E-01 -3.915845959185E-01 3.141807286102E-02
C14 1.040963209484E-01 -1.437240501498E-01 1.488682778109E-01
C15 2.640787474737E-01 3.178354795770E-01 -8.994147125009E-02
C16 4.957560308986E-01 3.919755837204E-01 -1.347345959135E-01
C17 3.915845959185E-01 1.063018782324E-01 -3.141807286102E-02
C18 1.437240501498E-01 -1.040963209484E-01 -1.488682778109E-01
C19 2.426720433888E-02 2.398594995370E-01 -7.455001007522E-02
C20 -2.398594995370E-01 -2.426720433888E-02 7.455001007522E-02
C21 -4.957560308986E-01 -3.919755837204E-01 1.347345959135E-01
H22 -3.517502425634E-01 4.639564764212E-01 1.372625674058E-01
C23 4.377281090981E-01 3.848611465775E-01 1.734471179574E-01
H24 -2.053973638245E-01 -4.671163023651E-01 -2.658529139899E-02
C25 -6.289762618600E-02 -4.465139706932E-01 6.210930030920E-02
H26 1.677141419548E-01 -2.700223389426E-02 1.837330908431E-01
C27 1.502326504835E-01 -1.963574914063E-01 1.790852958984E-01
C28 3.919755837204E-01 4.957560308986E-01 -1.347345959135E-01
H29 -4.639564764212E-01 3.517502425634E-01 -1.372625674058E-01
C30 -3.848611465775E-01 -4.377281090981E-01 -1.734471179574E-01
H31 4.671163023651E-01 2.053973638245E-01 2.658529139899E-02
C32 4.465139706932E-01 6.289762618600E-02 -6.210930030920E-02
H33 2.700223389426E-02 -1.677141419548E-01 -1.837330908431E-01
C34 1.963574914063E-01 -1.502326504835E-01 -1.790852958984E-01
C35 1.063018782324E-01 3.915845959185E-01 -3.141807286102E-02
C36 -1.040963209484E-01 1.437240501498E-01 -1.488682778109E-01
C37 -3.915845959185E-01 -1.063018782324E-01 3.141807286102E-02
C38 -1.437240501498E-01 1.040963209484E-01 1.488682778109E-01
H39 4.639564764212E-01 -3.517502425634E-01 1.372625674058E-01
C40 3.848611465775E-01 4.377281090981E-01 1.734471179574E-01
H41 3.432469561775E-01 2.509158457773E-01 2.062818379383E-01
H42 -1.289950770957E-01 4.345540452170E-01 2.834484339765E-02
C43 6.609997927352E-02 -3.488553466055E-01 1.359503092500E-01
H44 2.515503801235E-01 -1.179550708212E-01 2.364935146838E-01
H45 3.517502425634E-01 -4.639564764212E-01 -1.372625674058E-01
C46 -4.377281090981E-01 -3.848611465775E-01 -1.734471179574E-01
H47 -2.509158457773E-01 -3.432469561775E-01 -2.062818379383E-01
H48 -4.345540452170E-01 1.289950770957E-01 -2.834484339765E-02
C49 3.488553466055E-01 -6.609997927352E-02 -1.359503092500E-01
H50 1.179550708212E-01 -2.515503801235E-01 -2.364935146838E-01
H51 2.053973638245E-01 4.671163023651E-01 2.658529139899E-02
C52 6.289762618600E-02 4.465139706932E-01 -6.210930030920E-02
H53 -1.677141419548E-01 2.700223389426E-02 -1.837330908431E-01
C54 -1.502326504835E-01 1.963574914063E-01 -1.790852958984E-01
H55 -4.671163023651E-01 -2.053973638245E-01 -2.658529139899E-02
C56 -4.465139706932E-01 -6.289762618600E-02 6.210930030920E-02
H57 -2.700223389426E-02 1.677141419548E-01 1.837330908431E-01
C58 -1.963574914063E-01 1.502326504835E-01 1.790852958984E-01
H59 2.509158457773E-01 3.432469561775E-01 2.062818379383E-01
H60 9.996501249048E-02 -3.919948579061E-01 1.593061860582E-01
H61 -3.432469561775E-01 -2.509158457773E-01 -2.062818379383E-01
H62 3.919948579061E-01 -9.996501249048E-02 -1.593061860582E-01
H63 1.289950770957E-01 -4.345540452170E-01 -2.834484339765E-02
C64 -6.609997927352E-02 3.488553466055E-01 -1.359503092500E-01
H65 -2.515503801235E-01 1.179550708212E-01 -2.364935146838E-01
H66 4.345540452170E-01 -1.289950770957E-01 2.834484339765E-02
C67 -3.488553466055E-01 6.609997927352E-02 1.359503092500E-01
H68 -1.179550708212E-01 2.515503801235E-01 2.364935146838E-01
H69 -9.996501249048E-02 3.919948579061E-01 -1.593061860582E-01
H70 -3.919948579061E-01 9.996501249048E-02 1.593061860582E-01
C71 4.725320181363E-01 -4.725320181363E-01 -5.000000000000E-01
C72 -4.122681522338E-01 -3.057258662198E-01 -4.490126835587E-01
C73 3.057258662198E-01 4.122681522338E-01 4.490126835587E-01
C74 -4.725320181363E-01 4.725320181363E-01 -5.000000000000E-01
C75 -2.359212525263E-01 -1.821645204230E-01 -4.100585287499E-01
C76 -4.757327956611E-01 -2.601405004630E-01 -4.254499899248E-01
C77 1.821645204230E-01 2.359212525263E-01 4.100585287499E-01
C78 2.601405004630E-01 4.757327956611E-01 4.254499899248E-01
C79 4.122681522338E-01 3.057258662198E-01 4.490126835587E-01
C80 -3.057258662198E-01 -4.122681522338E-01 -4.490126835587E-01
C81 -1.821645204230E-01 -2.359212525263E-01 -4.100585287499E-01
C82 -1.080244162796E-01 -4.243969101394E-03 -3.652654040865E-01
C83 -3.936981217676E-01 -1.084154040815E-01 -4.685819271390E-01
C84 3.959036790516E-01 -3.562759498502E-01 -3.511317221891E-01
C85 2.359212525263E-01 1.821645204230E-01 4.100585287499E-01
C86 4.243969101394E-03 1.080244162796E-01 3.652654040865E-01
C87 1.084154040815E-01 3.936981217676E-01 4.685819271390E-01
C88 3.562759498502E-01 -3.959036790516E-01 3.511317221891E-01
C89 4.757327956611E-01 2.601405004630E-01 4.254499899248E-01
C90 -2.601405004630E-01 -4.757327956611E-01 -4.254499899248E-01
C91 -4.243969101394E-03 -1.080244162796E-01 -3.652654040865E-01
H92 -1.482497574366E-01 3.604352357884E-02 -3.627374325942E-01
C93 6.227189090191E-02 1.151388534225E-01 -3.265528820426E-01
H94 -2.946026361755E-01 -3.288369763486E-02 4.734147086010E-01
C95 -4.371023738140E-01 -5.348602930678E-02 -4.378906996908E-01
H96 3.322858580452E-01 -4.729977661057E-01 -3.162669091569E-01
C97 3.497673495165E-01 -3.036425085937E-01 -3.209147041016E-01
C98 1.080244162796E-01 4.243969101394E-03 3.652654040865E-01
H99 -3.604352357884E-02 1.482497574366E-01 3.627374325942E-01
C100 -1.151388534225E-01 -6.227189090191E-02 3.265528820426E-01
H101 3.288369763486E-02 2.946026361755E-01 -4.734147086010E-01
C102 5.348602930678E-02 4.371023738140E-01 4.378906996908E-01
H103 4.729977661057E-01 -3.322858580452E-01 3.162669091568E-01
C104 3.036425085937E-01 -3.497673495165E-01 3.209147041016E-01
C105 3.936981217676E-01 1.084154040815E-01 4.685819271390E-01
C106 -3.959036790516E-01 3.562759498502E-01 3.511317221891E-01
C107 -1.084154040815E-01 -3.936981217676E-01 -4.685819271390E-01
C108 -3.562759498502E-01 3.959036790516E-01 -3.511317221891E-01
H109 3.604352357884E-02 -1.482497574366E-01 -3.627374325942E-01
C110 1.151388534225E-01 6.227189090191E-02 -3.265528820426E-01
H111 1.567530438225E-01 2.490841542227E-01 -2.937181620617E-01
H112 -3.710049229043E-01 6.544595478296E-02 -4.716551566024E-01
C113 4.339000207265E-01 -1.511446533945E-01 -3.640496907500E-01
H114 2.484496198765E-01 -3.820449291788E-01 -2.635064853162E-01
H115 1.482497574366E-01 -3.604352357884E-02 3.627374325942E-01
C116 -6.227189090191E-02 -1.151388534225E-01 3.265528820426E-01
H117 -2.490841542227E-01 -1.567530438225E-01 2.937181620617E-01
H118 -6.544595478296E-02 3.710049229043E-01 4.716551566024E-01
C119 1.511446533945E-01 -4.339000207265E-01 3.640496907500E-01
H120 3.820449291788E-01 -2.484496198765E-01 2.635064853162E-01
H121 2.946026361755E-01 3.288369763486E-02 -4.734147086010E-01
C122 4.371023738140E-01 5.348602930678E-02 4.378906996908E-01
H123 -3.322858580452E-01 4.729977661057E-01 3.162669091568E-01
C124 -3.497673495165E-01 3.036425085937E-01 3.209147041016E-01
H125 -3.288369763486E-02 -2.946026361755E-01 4.734147086010E-01
C126 -5.348602930678E-02 -4.371023738140E-01 -4.378906996908E-01
H127 -4.729977661057E-01 3.322858580452E-01 -3.162669091569E-01
C128 -3.036425085937E-01 3.497673495165E-01 -3.209147041016E-01
H129 2.490841542227E-01 1.567530438225E-01 -2.937181620617E-01
H130 4.000349875095E-01 -1.080051420939E-01 -3.406938139418E-01
H131 -1.567530438225E-01 -2.490841542227E-01 2.937181620617E-01
H132 1.080051420939E-01 -4.000349875095E-01 3.406938139418E-01
H133 3.710049229043E-01 -6.544595478296E-02 4.716551566024E-01
C134 -4.339000207265E-01 1.511446533945E-01 3.640496907500E-01
H135 -2.484496198765E-01 3.820449291788E-01 2.635064853162E-01
H136 6.544595478296E-02 -3.710049229043E-01 -4.716551566024E-01
C137 -1.511446533945E-01 4.339000207265E-01 -3.640496907500E-01
H138 -3.820449291788E-01 2.484496198765E-01 -2.635064853162E-01
H139 -4.000349875095E-01 1.080051420939E-01 3.406938139418E-01
H140 -1.080051420939E-01 4.000349875095E-01 -3.406938139418E-01


#===END
