###############################################################
#
#primitive cell cif file
#
###############################################################

posm33_data

_symmetry_space_group_name_H-M 'P 1'
_cell_length_a      13.86596031
_cell_length_b      13.86596031
_cell_length_c      14.21100000
_cell_angle_alpha   90.000000
_cell_angle_beta    90.000000
_cell_angle_gamma   150.032293

loop_
_atom_site_label
_atom_site_fract_x
_atom_site_fract_y
_atom_site_fract_z
C1 2.715068933155E-02 -2.766753381049E-02 -1.152896093167E-04
C2 -8.990625050398E-02 -1.962572744140E-01 4.947603891640E-02
C3 1.956626948961E-01 8.924140974969E-02 -4.975417642383E-02
C4 -2.766753381049E-02 2.715068933155E-02 -1.152896093167E-04
C5 -2.660696879436E-01 -3.197993094787E-01 8.860029635156E-02
C6 -2.584786729097E-02 -2.410148175997E-01 7.301532419400E-02
C7 3.194614394826E-01 2.657159180960E-01 -8.849415600915E-02
C8 2.409929208759E-01 2.565755859611E-02 -7.352730649659E-02
C9 8.924140974969E-02 1.956626948961E-01 -4.975417642383E-02
C10 -1.962572744140E-01 -8.990625050398E-02 4.947603891640E-02
C11 -3.197993094787E-01 -2.660696879436E-01 8.860029635156E-02
C12 -3.917294310669E-01 -4.954931233855E-01 1.352335824854E-01
C13 -1.091854838034E-01 -3.942672752934E-01 3.127735832116E-02
C14 1.056622520390E-01 -1.410419590228E-01 1.462324126847E-01
C15 2.657159180960E-01 3.194614394826E-01 -8.849415600915E-02
C16 4.961205296242E-01 3.922615268724E-01 -1.342878268153E-01
C17 3.872629606402E-01 1.010097888192E-01 -2.819732661065E-02
C18 1.491597457095E-01 -9.683403319264E-02 -1.502923443841E-01
C19 2.565755859611E-02 2.409929208759E-01 -7.352730649659E-02
C20 -2.410148175997E-01 -2.584786729097E-02 7.301532419400E-02
C21 -4.954931233855E-01 -3.917294310669E-01 1.352335824854E-01
H22 -3.515384848111E-01 4.641782153336E-01 1.375058002377E-01
C23 4.413913725580E-01 3.885277229528E-01 1.769470608595E-01
H24 -2.109679841246E-01 -4.728495722777E-01 -2.575390564788E-02
C25 -6.375729053358E-02 -4.470142292031E-01 6.245389526240E-02
H26 1.698117587206E-01 -2.323797221487E-02 1.798387213057E-01
C27 1.543451205274E-01 -1.909770471464E-01 1.766341451498E-01
C28 3.922615268724E-01 4.961205296242E-01 -1.342878268153E-01
H29 -4.635030678482E-01 3.520846466200E-01 -1.365059596513E-01
C30 -3.868799743536E-01 -4.397810605931E-01 -1.750436151524E-01
H31 4.593590866935E-01 1.954850155765E-01 3.173246835902E-02
C32 4.405371427617E-01 5.599491763889E-02 -5.903157583773E-02
H33 3.635237937954E-02 -1.554147904482E-01 -1.864376803113E-01
C34 2.006231229223E-01 -1.439651364171E-01 -1.809210657315E-01
C35 1.010097888192E-01 3.872629606402E-01 -2.819732661065E-02
C36 -9.683403319264E-02 1.491597457095E-01 -1.502923443841E-01
C37 -3.942672752934E-01 -1.091854838034E-01 3.127735832116E-02
C38 -1.410419590228E-01 1.056622520390E-01 1.462324126847E-01
H39 4.641782153336E-01 -3.515384848111E-01 1.375058002377E-01
C40 3.885277229528E-01 4.413913725580E-01 1.769470608595E-01
H41 3.497068752258E-01 2.573340663209E-01 2.120687410032E-01
H42 -1.315300504028E-01 4.322028843749E-01 3.016094994807E-02
C43 6.895837283652E-02 -3.450995877869E-01 1.349683674736E-01
H44 2.580471907721E-01 -1.098542473682E-01 2.331423064601E-01
H45 3.520846466200E-01 -4.635030678482E-01 -1.365059596513E-01
C46 -4.397810605931E-01 -3.868799743536E-01 -1.750436151524E-01
H47 -2.545242207623E-01 -3.469938183989E-01 -2.091724982848E-01
H48 -4.447301447663E-01 1.168462810213E-01 -2.354951225065E-02
C49 3.472735328022E-01 -6.711661966102E-02 -1.354017241504E-01
H50 1.252105729804E-01 -2.411686769355E-01 -2.401303720958E-01
H51 1.954850155765E-01 4.593590866935E-01 3.173246835902E-02
C52 5.599491763889E-02 4.405371427617E-01 -5.903157583773E-02
H53 -1.554147904482E-01 3.635237937954E-02 -1.864376803113E-01
C54 -1.439651364171E-01 2.006231229223E-01 -1.809210657315E-01
H55 -4.728495722777E-01 -2.109679841246E-01 -2.575390564788E-02
C56 -4.470142292031E-01 -6.375729053358E-02 6.245389526240E-02
H57 -2.323797221487E-02 1.698117587206E-01 1.798387213057E-01
C58 -1.909770471464E-01 1.543451205274E-01 1.766341451498E-01
H59 2.573340663209E-01 3.497068752258E-01 2.120687410032E-01
H60 1.044218897605E-01 -3.865323881195E-01 1.586601112215E-01
H61 -3.469938183989E-01 -2.545242207623E-01 -2.091724982848E-01
H62 3.892965055277E-01 -1.020822494348E-01 -1.588453000565E-01
H63 1.168462810213E-01 -4.447301447663E-01 -2.354951225065E-02
C64 -6.711661966102E-02 3.472735328022E-01 -1.354017241504E-01
H65 -2.411686769355E-01 1.252105729804E-01 -2.401303720958E-01
H66 4.322028843749E-01 -1.315300504028E-01 3.016094994807E-02
C67 -3.450995877869E-01 6.895837283652E-02 1.349683674736E-01
H68 -1.098542473682E-01 2.580471907721E-01 2.331423064601E-01
H69 -1.020822494348E-01 3.892965055277E-01 -1.588453000565E-01
H70 -3.865323881195E-01 1.044218897605E-01 1.586601112215E-01
C71 4.728493106685E-01 -4.723324661895E-01 4.998847103907E-01
C72 -4.100937494960E-01 -3.037427255860E-01 -4.505239610836E-01
C73 3.043373051039E-01 4.107585902503E-01 4.502458235762E-01
C74 -4.723324661895E-01 4.728493106685E-01 4.998847103907E-01
C75 -2.339303120564E-01 -1.802006905213E-01 -4.113997036484E-01
C76 -4.741521327090E-01 -2.589851824003E-01 -4.269846758060E-01
C77 1.805385605174E-01 2.342840819040E-01 4.115058439909E-01
C78 2.590070791241E-01 4.743424414039E-01 4.264726935034E-01
C79 4.107585902503E-01 3.043373051039E-01 4.502458235762E-01
C80 -3.037427255860E-01 -4.100937494960E-01 -4.505239610836E-01
C81 -1.802006905213E-01 -2.339303120564E-01 -4.113997036484E-01
C82 -1.082705689331E-01 -4.506876614498E-03 -3.647664175146E-01
C83 -3.908145161966E-01 -1.057327247066E-01 -4.687226416788E-01
C84 3.943377479610E-01 -3.589580409772E-01 -3.537675873153E-01
C85 2.342840819040E-01 1.805385605174E-01 4.115058439909E-01
C86 3.879470375843E-03 1.077384731276E-01 3.657121731847E-01
C87 1.127370393598E-01 3.989902111808E-01 4.718026733893E-01
C88 3.508402542905E-01 -4.031659668074E-01 3.497076556159E-01
C89 4.743424414039E-01 2.590070791241E-01 4.264726935034E-01
C90 -2.589851824003E-01 -4.741521327090E-01 -4.269846758060E-01
C91 -4.506876614498E-03 -1.082705689331E-01 -3.647664175146E-01
H92 -1.484615151889E-01 3.582178466643E-02 -3.624941997623E-01
C93 5.860862744202E-02 1.114722770472E-01 -3.230529391405E-01
H94 -2.890320158754E-01 -2.715042772232E-02 4.742460943521E-01
C95 -4.362427094664E-01 -5.298577079690E-02 -4.375461047376E-01
H96 3.301882412794E-01 -4.767620277851E-01 -3.201612786943E-01
C97 3.456548794726E-01 -3.090229528536E-01 -3.233658548502E-01
C98 1.077384731276E-01 3.879470375843E-03 3.657121731847E-01
H99 -3.649693215182E-02 1.479153533800E-01 3.634940403487E-01
C100 -1.131200256464E-01 -6.021893940689E-02 3.249563848476E-01
H101 4.064091330648E-02 3.045149844235E-01 -4.682675316410E-01
C102 5.946285723833E-02 4.440050823611E-01 4.409684241623E-01
H103 4.636476206205E-01 -3.445852095518E-01 3.135623196887E-01
C104 2.993768770777E-01 -3.560348635829E-01 3.190789342685E-01
C105 3.989902111808E-01 1.127370393598E-01 4.718026733893E-01
C106 -4.031659668074E-01 3.508402542905E-01 3.497076556159E-01
C107 -1.057327247066E-01 -3.908145161966E-01 -4.687226416788E-01
C108 -3.589580409772E-01 3.943377479610E-01 -3.537675873153E-01
H109 3.582178466643E-02 -1.484615151889E-01 -3.624941997623E-01
C110 1.114722770472E-01 5.860862744202E-02 -3.230529391405E-01
H111 1.502931247742E-01 2.426659336791E-01 -2.879312589968E-01
H112 -3.684699495972E-01 6.779711562509E-02 -4.698390500519E-01
C113 4.310416271635E-01 -1.549004122131E-01 -3.650316325264E-01
H114 2.419528092279E-01 -3.901457526318E-01 -2.668576935399E-01
H115 1.479153533800E-01 -3.649693215182E-02 3.634940403487E-01
C116 -6.021893940689E-02 -1.131200256464E-01 3.249563848476E-01
H117 -2.454757792377E-01 -1.530061816011E-01 2.908275017152E-01
H118 -5.526985523368E-02 3.831537189787E-01 4.764504877493E-01
C119 1.527264671978E-01 -4.328833803390E-01 3.645982758496E-01
H120 3.747894270196E-01 -2.588313230645E-01 2.598696279042E-01
H121 3.045149844235E-01 4.064091330648E-02 -4.682675316410E-01
C122 4.440050823611E-01 5.946285723833E-02 4.409684241623E-01
H123 -3.445852095518E-01 4.636476206205E-01 3.135623196887E-01
C124 -3.560348635829E-01 2.993768770777E-01 3.190789342685E-01
H125 -2.715042772232E-02 -2.890320158754E-01 4.742460943521E-01
C126 -5.298577079690E-02 -4.362427094664E-01 -4.375461047376E-01
H127 -4.767620277851E-01 3.301882412794E-01 -3.201612786943E-01
C128 -3.090229528536E-01 3.456548794726E-01 -3.233658548502E-01
H129 2.426659336791E-01 1.502931247742E-01 -2.879312589968E-01
H130 3.955781102395E-01 -1.134676118805E-01 -3.413398887785E-01
H131 -1.530061816011E-01 -2.454757792377E-01 2.908275017152E-01
H132 1.107034944723E-01 -3.979177505652E-01 3.411546999435E-01
H133 3.831537189787E-01 -5.526985523368E-02 4.764504877493E-01
C134 -4.328833803390E-01 1.527264671978E-01 3.645982758496E-01
H135 -2.588313230645E-01 3.747894270196E-01 2.598696279042E-01
H136 6.779711562509E-02 -3.684699495972E-01 -4.698390500519E-01
C137 -1.549004122131E-01 4.310416271635E-01 -3.650316325264E-01
H138 -3.901457526318E-01 2.419528092279E-01 -2.668576935399E-01
H139 -3.979177505652E-01 1.107034944723E-01 3.411546999435E-01
H140 -1.134676118805E-01 3.955781102395E-01 -3.413398887785E-01


#===END
