###############################################################
#
#primitive cell cif file
#
###############################################################

posm28_data

_symmetry_space_group_name_H-M 'P 1'
_cell_length_a      13.86596031
_cell_length_b      13.86596031
_cell_length_c      14.21100000
_cell_angle_alpha   90.000000
_cell_angle_beta    90.000000
_cell_angle_gamma   150.032293

loop_
_atom_site_label
_atom_site_fract_x
_atom_site_fract_y
_atom_site_fract_z
C1 2.708058323812E-02 -2.708058323812E-02 0.000000000000E+00
C2 -8.922123911070E-02 -1.950287927459E-01 4.998311256611E-02
C3 1.950287927459E-01 8.922123911070E-02 -4.998311256611E-02
C4 -2.773763990392E-02 2.773763990392E-02 0.000000000000E+00
C5 -2.655743338386E-01 -3.189244409943E-01 8.885829832369E-02
C6 -2.479059752446E-02 -2.395558995135E-01 7.306271223031E-02
C7 3.189244409943E-01 2.655743338386E-01 -8.885829832369E-02
C8 2.395558995135E-01 2.479059752446E-02 -7.306271223031E-02
C9 8.992642114297E-02 1.968911765641E-01 -4.924710277412E-02
C10 -1.968911765641E-01 -8.992642114297E-02 4.924710277412E-02
C11 -3.203363079669E-01 -2.662112722010E-01 8.823615403701E-02
C12 -3.907229017690E-01 -4.944130399992E-01 1.354760054111E-01
C13 -1.040233309890E-01 -3.888211068868E-01 2.878949624495E-02
C14 1.043613572553E-01 -1.424318729267E-01 1.470510652344E-01
C15 2.662112722010E-01 3.203363079669E-01 -8.823615403701E-02
C16 4.944130399992E-01 3.907229017690E-01 -1.354760054111E-01
C17 3.888211068868E-01 1.040233309890E-01 -2.878949624495E-02
C18 1.424318729267E-01 -1.043613572553E-01 -1.470510652344E-01
C19 2.671482836263E-02 2.424518389621E-01 -7.347991846028E-02
C20 -2.424518389621E-01 -2.671482836263E-02 7.347991846028E-02
C21 -4.972006130104E-01 -3.932680561703E-01 1.340454038896E-01
H22 -3.493875016957E-01 4.663991857771E-01 1.382086295508E-01
C23 4.413779397793E-01 3.883721075984E-01 1.764217690293E-01
H24 -2.038754469581E-01 -4.650371455323E-01 -2.889664231954E-02
C25 -5.560168388361E-02 -4.393906910999E-01 5.762679809148E-02
H26 1.655818615114E-01 -2.755426503186E-02 1.825131873827E-01
C27 1.552958315058E-01 -1.908550295731E-01 1.755160986125E-01
C28 3.932680561703E-01 4.972006130104E-01 -1.340454038896E-01
H29 -4.663991857771E-01 3.493875016957E-01 -1.382086295508E-01
C30 -3.883721075984E-01 -4.413779397793E-01 -1.764217690293E-01
H31 4.650371455323E-01 2.038754469581E-01 2.889664231954E-02
C32 4.393906910999E-01 5.560168388361E-02 -5.762679809148E-02
H33 2.755426503186E-02 -1.655818615114E-01 -1.825131873827E-01
C34 1.908550295731E-01 -1.552958315058E-01 -1.755160986125E-01
C35 1.061719416336E-01 3.927091290467E-01 -3.068518868686E-02
C36 -9.813492797632E-02 1.477698318056E-01 -1.494736918344E-01
C37 -3.927091290467E-01 -1.061719416336E-01 3.068518868686E-02
C38 -1.477698318056E-01 9.813492797632E-02 1.494736918344E-01
H39 4.612820974046E-01 -3.542356297354E-01 1.358031303382E-01
C40 3.870355897079E-01 4.397944933718E-01 1.755689069826E-01
H41 3.498532227334E-01 2.571668795338E-01 2.114268277346E-01
H42 -1.193555532537E-01 4.436623625251E-01 2.289280811217E-02
C43 7.498368306165E-02 -3.401675521484E-01 1.308495895340E-01
H44 2.572095438960E-01 -1.119207551962E-01 2.326997144027E-01
H45 3.542356297354E-01 -4.612820974046E-01 -1.358031303382E-01
C46 -4.397944933718E-01 -3.870355897079E-01 -1.755689069826E-01
H47 -2.571668795338E-01 -3.498532227334E-01 -2.114268277346E-01
H48 -4.436623625251E-01 1.193555532537E-01 -2.289280811217E-02
C49 3.401675521484E-01 -7.498368306165E-02 -1.308495895340E-01
H50 1.119207551962E-01 -2.572095438960E-01 -2.326997144027E-01
H51 2.025775527430E-01 4.671715134389E-01 2.858973168735E-02
C52 6.415052428886E-02 4.481606808648E-01 -6.385867300866E-02
H53 -1.596446876574E-01 3.203608656255E-02 -1.837632142344E-01
C54 -1.430144254387E-01 2.007451404956E-01 -1.820391122688E-01
H55 -4.671715134389E-01 -2.025775527430E-01 -2.858973168735E-02
C56 -4.481606808648E-01 -6.415052428886E-02 6.385867300866E-02
H57 -3.203608656255E-02 1.596446876574E-01 1.837632142344E-01
C58 -2.007451404956E-01 1.430144254387E-01 1.820391122688E-01
H59 2.546914075494E-01 3.468474708913E-01 2.098144115534E-01
H60 1.125665951057E-01 -3.801087184427E-01 1.528319434998E-01
H61 -3.468474708913E-01 -2.546914075494E-01 -2.098144115534E-01
H62 3.801087184427E-01 -1.125665951057E-01 -1.528319434998E-01
H63 1.290207781704E-01 -4.332706666162E-01 -3.081765408655E-02
C64 -6.109130943589E-02 3.522055684406E-01 -1.395205020901E-01
H65 -2.420063238116E-01 1.231440651524E-01 -2.405729641532E-01
H66 4.332706666162E-01 -1.290207781704E-01 3.081765408655E-02
C67 -3.522055684406E-01 6.109130943589E-02 1.395205020901E-01
H68 -1.231440651524E-01 2.420063238116E-01 2.405729641532E-01
H69 -9.393754408963E-02 3.957201752046E-01 -1.646734677783E-01
H70 -3.957201752046E-01 9.393754408963E-02 1.646734677783E-01
C71 4.722623600961E-01 -4.722623600961E-01 -5.000000000000E-01
C72 -4.100735788570E-01 -3.031088234359E-01 -4.507528972259E-01
C73 3.031088234359E-01 4.100735788570E-01 4.507528972259E-01
C74 -4.729194167619E-01 4.729194167619E-01 -5.000000000000E-01
C75 -2.337887277990E-01 -1.796636920331E-01 -4.117638459630E-01
C76 -4.732851716374E-01 -2.575481610379E-01 -4.265200815397E-01
C77 1.796636920331E-01 2.337887277990E-01 4.117638459630E-01
C78 2.575481610379E-01 4.732851716374E-01 4.265200815397E-01
C79 4.107787608893E-01 3.049712072541E-01 4.500168874339E-01
C80 -3.049712072541E-01 -4.107787608893E-01 -4.500168874339E-01
C81 -1.810755590057E-01 -2.344256661614E-01 -4.111417016763E-01
C82 -1.067319438297E-01 -2.799386989563E-03 -3.659545961104E-01
C83 -3.938280583664E-01 -1.072908709533E-01 -4.693148113131E-01
C84 4.018650720237E-01 -3.522301681944E-01 -3.505263081656E-01
C85 2.344256661614E-01 1.810755590057E-01 4.111417016763E-01
C86 2.799386989563E-03 1.067319438297E-01 3.659545961104E-01
C87 1.072908709533E-01 3.938280583664E-01 4.693148113131E-01
C88 3.522301681944E-01 -4.018650720237E-01 3.505263081656E-01
C89 4.752094024755E-01 2.604441004865E-01 4.269372877697E-01
C90 -2.604441004865E-01 -4.752094024755E-01 -4.269372877697E-01
C91 -5.586960000778E-03 -1.092770982310E-01 -3.645239945889E-01
H92 -1.457643702646E-01 3.871790259540E-02 -3.641968696618E-01
C93 6.020550662817E-02 1.129644102921E-01 -3.244310930174E-01
H94 -2.974224472570E-01 -3.282848656112E-02 4.714102683126E-01
C95 -4.358494757111E-01 -5.183931913516E-02 -4.361413269913E-01
H96 3.403553123426E-01 -4.679639134374E-01 -3.162367857656E-01
C97 3.569855745613E-01 -2.992548595044E-01 -3.179608877312E-01
C98 1.092770982310E-01 5.586960000778E-03 3.645239945889E-01
H99 -3.871790259540E-02 1.457643702646E-01 3.641968696618E-01
C100 -1.129644102921E-01 -6.020550662817E-02 3.244310930174E-01
H101 3.282848656112E-02 2.974224472570E-01 -4.714102683126E-01
C102 5.183931913516E-02 4.358494757111E-01 4.361413269913E-01
H103 4.679639134374E-01 -3.403553123426E-01 3.162367857656E-01
C104 2.992548595044E-01 -3.569855745613E-01 3.179608877312E-01
C105 3.959766690110E-01 1.111788931132E-01 4.712105037550E-01
C106 -3.956386427447E-01 3.575681270733E-01 3.529489347656E-01
C107 -1.111788931132E-01 -3.959766690110E-01 -4.712105037550E-01
C108 -3.575681270733E-01 3.956386427447E-01 -3.529489347656E-01
H109 3.360081422285E-02 -1.506124983043E-01 -3.617913704492E-01
C110 1.116278924016E-01 5.862206022075E-02 -3.235782309707E-01
H111 1.531525291087E-01 2.453085924506E-01 -2.901855884466E-01
H112 -3.709792218296E-01 6.672933338383E-02 -4.691823459134E-01
C113 4.389086905641E-01 -1.477944315594E-01 -3.604794979099E-01
H114 2.579936761884E-01 -3.768559348476E-01 -2.594270358468E-01
H115 1.506124983043E-01 -3.360081422285E-02 3.617913704492E-01
C116 -5.862206022075E-02 -1.116278924016E-01 3.235782309707E-01
H117 -2.453085924506E-01 -1.531525291087E-01 2.901855884466E-01
H118 -6.672933338383E-02 3.709792218296E-01 4.691823459134E-01
C119 1.477944315594E-01 -4.389086905641E-01 3.604794979099E-01
H120 3.768559348476E-01 -2.579936761884E-01 2.594270358468E-01
H121 2.961245530419E-01 3.496285446768E-02 -4.711033576805E-01
C122 4.443983161164E-01 6.060930890007E-02 4.423732019085E-01
H123 -3.344181384886E-01 4.724457349681E-01 3.174868126173E-01
C124 -3.447041684942E-01 3.091449704269E-01 3.244839013875E-01
H125 -3.496285446768E-02 -2.961245530419E-01 4.711033576805E-01
C126 -6.060930890007E-02 -4.443983161164E-01 -4.423732019085E-01
H127 -4.724457349681E-01 3.344181384886E-01 -3.174868126173E-01
C128 -3.091449704269E-01 3.447041684942E-01 -3.244839013875E-01
H129 2.428331204662E-01 1.501467772666E-01 -2.885731722654E-01
H130 4.060624559104E-01 -1.042798247954E-01 -3.353265322217E-01
H131 -1.501467772666E-01 -2.428331204662E-01 2.885731722654E-01
H132 1.042798247954E-01 -4.060624559104E-01 3.353265322217E-01
H133 3.806444467463E-01 -5.633763747494E-02 4.771071918878E-01
C134 -4.250163169384E-01 1.598324478516E-01 3.691504104660E-01
H135 -2.427904561040E-01 3.880792448038E-01 2.673002855973E-01
H136 5.633763747494E-02 -3.806444467463E-01 -4.771071918878E-01
C137 -1.598324478516E-01 4.250163169384E-01 -3.691504104660E-01
H138 -3.880792448038E-01 2.427904561040E-01 -2.673002855973E-01
H139 -3.874334048943E-01 1.198912815573E-01 3.471680565002E-01
H140 -1.198912815573E-01 3.874334048943E-01 -3.471680565002E-01


#===END
