###############################################################
#
#primitive cell cif file
#
###############################################################

posm7_data

_symmetry_space_group_name_H-M 'P 1'
_cell_length_a      13.86596031
_cell_length_b      13.86596031
_cell_length_c      14.21100000
_cell_angle_alpha   90.000000
_cell_angle_beta    90.000000
_cell_angle_gamma   150.032293

loop_
_atom_site_label
_atom_site_fract_x
_atom_site_fract_y
_atom_site_fract_z
C1 2.740243843361E-02 -2.740243843361E-02 0.000000000000E+00
C2 -8.886716480220E-02 -1.952850293225E-01 5.005465891422E-02
C3 1.952850293225E-01 8.886716480220E-02 -5.005465891422E-02
C4 -2.740243843361E-02 2.740243843361E-02 0.000000000000E+00
C5 -2.653519222089E-01 -3.191221675119E-01 8.882726217135E-02
C6 -2.200962721424E-02 -2.369089112508E-01 7.490447449194E-02
C7 3.191221675119E-01 2.653519222089E-01 -8.882726217135E-02
C8 2.369089112508E-01 2.200962721424E-02 -7.490447449194E-02
C9 8.886716480220E-02 1.952850293225E-01 -5.005465891422E-02
C10 -1.952850293225E-01 -8.886716480220E-02 5.005465891422E-02
C11 -3.191221675119E-01 -2.653519222089E-01 8.882726217135E-02
C12 -3.905538104854E-01 -4.943365117670E-01 1.357992389549E-01
C13 -1.032302141052E-01 -3.898311961952E-01 3.484798204623E-02
C14 1.128737978432E-01 -1.317838661241E-01 1.471618286998E-01
C15 2.653519222089E-01 3.191221675119E-01 -8.882726217135E-02
C16 4.943365117670E-01 3.905538104854E-01 -1.357992389549E-01
C17 3.898311961952E-01 1.032302141052E-01 -3.484798204623E-02
C18 1.317838661241E-01 -1.128737978432E-01 -1.471618286998E-01
C19 2.200962721424E-02 2.369089112508E-01 -7.490447449194E-02
C20 -2.369089112508E-01 -2.200962721424E-02 7.490447449194E-02
C21 -4.943365117670E-01 -3.905538104854E-01 1.357992389549E-01
H22 -3.504368114781E-01 4.652610088653E-01 1.382203069367E-01
C23 4.432913026798E-01 3.904353490896E-01 1.781010594903E-01
H24 -2.071799040901E-01 -4.721800936790E-01 -2.166831583168E-02
C25 -5.173199353816E-02 -4.364826025849E-01 6.632612276145E-02
H26 1.756507965011E-01 -1.409144796080E-02 1.794143085003E-01
C27 1.672027009813E-01 -1.759053022395E-01 1.780808392243E-01
C28 3.905538104854E-01 4.943365117670E-01 -1.357992389549E-01
H29 -4.652610088653E-01 3.504368114781E-01 -1.382203069367E-01
C30 -3.904353490896E-01 -4.432913026798E-01 -1.781010594903E-01
H31 4.721800936790E-01 2.071799040901E-01 2.166831583168E-02
C32 4.364826025849E-01 5.173199353816E-02 -6.632612276145E-02
H33 1.409144796080E-02 -1.756507965011E-01 -1.794143085003E-01
C34 1.759053022395E-01 -1.672027009813E-01 -1.780808392243E-01
C35 1.032302141052E-01 3.898311961952E-01 -3.484798204623E-02
C36 -1.128737978432E-01 1.317838661241E-01 -1.471618286998E-01
C37 -3.898311961952E-01 -1.032302141052E-01 3.484798204623E-02
C38 -1.317838661241E-01 1.128737978432E-01 1.471618286998E-01
H39 4.652610088653E-01 -3.504368114781E-01 1.382203069367E-01
C40 3.904353490896E-01 4.432913026798E-01 1.781010594903E-01
H41 3.524439314453E-01 2.600214437973E-01 2.137867034830E-01
H42 -1.176395291290E-01 4.431336963931E-01 3.521215901217E-02
C43 8.471024695315E-02 -3.290291308611E-01 1.377548301633E-01
H44 2.736543376814E-01 -9.057802475111E-02 2.337535448239E-01
H45 3.504368114781E-01 -4.652610088653E-01 -1.382203069367E-01
C46 -4.432913026798E-01 -3.904353490896E-01 -1.781010594903E-01
H47 -2.600214437973E-01 -3.524439314453E-01 -2.137867034830E-01
H48 -4.431336963931E-01 1.176395291290E-01 -3.521215901217E-02
C49 3.290291308611E-01 -8.471024695315E-02 -1.377548301633E-01
H50 9.057802475111E-02 -2.736543376814E-01 -2.337535448239E-01
H51 2.071799040901E-01 4.721800936790E-01 2.166831583168E-02
C52 5.173199353816E-02 4.364826025849E-01 -6.632612276145E-02
H53 -1.756507965011E-01 1.409144796080E-02 -1.794143085003E-01
C54 -1.672027009813E-01 1.759053022395E-01 -1.780808392243E-01
H55 -4.721800936790E-01 -2.071799040901E-01 -2.166831583168E-02
C56 -4.364826025849E-01 -5.173199353816E-02 6.632612276145E-02
H57 -1.409144796080E-02 1.756507965011E-01 1.794143085003E-01
C58 -1.759053022395E-01 1.672027009813E-01 1.780808392243E-01
H59 2.600214437973E-01 3.524439314453E-01 2.137867034830E-01
H60 1.255980494406E-01 -3.650788196749E-01 1.614496284104E-01
H61 -3.524439314453E-01 -2.600214437973E-01 -2.137867034830E-01
H62 3.650788196749E-01 -1.255980494406E-01 -1.614496284104E-01
H63 1.176395291290E-01 -4.431336963931E-01 -3.521215901217E-02
C64 -8.471024695315E-02 3.290291308611E-01 -1.377548301633E-01
H65 -2.736543376814E-01 9.057802475111E-02 -2.337535448239E-01
H66 4.431336963931E-01 -1.176395291290E-01 3.521215901217E-02
C67 -3.290291308611E-01 8.471024695315E-02 1.377548301633E-01
H68 -9.057802475111E-02 2.736543376814E-01 2.337535448239E-01
H69 -1.255980494406E-01 3.650788196749E-01 -1.614496284104E-01
H70 -3.650788196749E-01 1.255980494406E-01 1.614496284104E-01
C71 4.725975615664E-01 -4.725975615664E-01 -5.000000000000E-01
C72 -4.111328351978E-01 -3.047149706775E-01 -4.499453410858E-01
C73 3.047149706775E-01 4.111328351978E-01 4.499453410858E-01
C74 -4.725975615664E-01 4.725975615664E-01 -5.000000000000E-01
C75 -2.346480777911E-01 -1.808778324881E-01 -4.111727378287E-01
C76 -4.779903727858E-01 -2.630910887492E-01 -4.250955255081E-01
C77 1.808778324881E-01 2.346480777911E-01 4.111727378287E-01
C78 2.630910887492E-01 4.779903727858E-01 4.250955255081E-01
C79 4.111328351978E-01 3.047149706775E-01 4.499453410858E-01
C80 -3.047149706775E-01 -4.111328351978E-01 -4.499453410858E-01
C81 -1.808778324881E-01 -2.346480777911E-01 -4.111727378287E-01
C82 -1.094461895146E-01 -5.663488232957E-03 -3.642007610451E-01
C83 -3.967697858948E-01 -1.101688038048E-01 -4.651520179538E-01
C84 3.871262021568E-01 -3.682161338759E-01 -3.528381713002E-01
C85 2.346480777911E-01 1.808778324881E-01 4.111727378287E-01
C86 5.663488232957E-03 1.094461895146E-01 3.642007610451E-01
C87 1.101688038048E-01 3.967697858948E-01 4.651520179538E-01
C88 3.682161338759E-01 -3.871262021568E-01 3.528381713002E-01
C89 4.779903727858E-01 2.630910887492E-01 4.250955255081E-01
C90 -2.630910887492E-01 -4.779903727858E-01 -4.250955255081E-01
C91 -5.663488232957E-03 -1.094461895146E-01 -3.642007610451E-01
H92 -1.495631885219E-01 3.473899113470E-02 -3.617796930633E-01
C93 5.670869732024E-02 1.095646509104E-01 -3.218989405097E-01
H94 -2.928200959099E-01 -2.781990632101E-02 4.783316841683E-01
C95 -4.482680064618E-01 -6.351739741514E-02 -4.336738772385E-01
H96 3.243492034989E-01 -4.859085520392E-01 -3.205856914997E-01
C97 3.327972990187E-01 -3.240946977605E-01 -3.219191607757E-01
C98 1.094461895146E-01 5.663488232957E-03 3.642007610451E-01
H99 -3.473899113470E-02 1.495631885219E-01 3.617796930633E-01
C100 -1.095646509104E-01 -5.670869732024E-02 3.218989405097E-01
H101 2.781990632101E-02 2.928200959099E-01 -4.783316841683E-01
C102 6.351739741514E-02 4.482680064618E-01 4.336738772385E-01
H103 4.859085520392E-01 -3.243492034989E-01 3.205856914997E-01
C104 3.240946977605E-01 -3.327972990187E-01 3.219191607757E-01
C105 3.967697858948E-01 1.101688038048E-01 4.651520179538E-01
C106 -3.871262021568E-01 3.682161338759E-01 3.528381713002E-01
C107 -1.101688038048E-01 -3.967697858948E-01 -4.651520179538E-01
C108 -3.682161338759E-01 3.871262021568E-01 -3.528381713002E-01
H109 3.473899113470E-02 -1.495631885219E-01 -3.617796930633E-01
C110 1.095646509104E-01 5.670869732024E-02 -3.218989405097E-01
H111 1.475560685547E-01 2.399785562027E-01 -2.862132965170E-01
H112 -3.823604708710E-01 5.686630360686E-02 -4.647878409878E-01
C113 4.152897530468E-01 -1.709708691389E-01 -3.622451698367E-01
H114 2.263456623186E-01 -4.094219752489E-01 -2.662464551761E-01
H115 1.495631885219E-01 -3.473899113470E-02 3.617796930633E-01
C116 -5.670869732024E-02 -1.095646509104E-01 3.218989405097E-01
H117 -2.399785562027E-01 -1.475560685547E-01 2.862132965170E-01
H118 -5.686630360686E-02 3.823604708710E-01 4.647878409878E-01
C119 1.709708691389E-01 -4.152897530468E-01 3.622451698367E-01
H120 4.094219752489E-01 -2.263456623186E-01 2.662464551761E-01
H121 2.928200959099E-01 2.781990632101E-02 -4.783316841683E-01
C122 4.482680064618E-01 6.351739741514E-02 4.336738772385E-01
H123 -3.243492034989E-01 4.859085520392E-01 3.205856914997E-01
C124 -3.327972990187E-01 3.240946977605E-01 3.219191607757E-01
H125 -2.781990632101E-02 -2.928200959099E-01 4.783316841683E-01
C126 -6.351739741514E-02 -4.482680064618E-01 -4.336738772385E-01
H127 -4.859085520392E-01 3.243492034989E-01 -3.205856914997E-01
C128 -3.240946977605E-01 3.327972990187E-01 -3.219191607757E-01
H129 2.399785562027E-01 1.475560685547E-01 -2.862132965170E-01
H130 3.744019505594E-01 -1.349211803251E-01 -3.385503715896E-01
H131 -1.475560685547E-01 -2.399785562027E-01 2.862132965170E-01
H132 1.349211803251E-01 -3.744019505594E-01 3.385503715896E-01
H133 3.823604708710E-01 -5.686630360686E-02 4.647878409878E-01
C134 -4.152897530468E-01 1.709708691389E-01 3.622451698367E-01
H135 -2.263456623186E-01 4.094219752489E-01 2.662464551761E-01
H136 5.686630360686E-02 -3.823604708710E-01 -4.647878409878E-01
C137 -1.709708691389E-01 4.152897530468E-01 -3.622451698367E-01
H138 -4.094219752489E-01 2.263456623186E-01 -2.662464551761E-01
H139 -3.744019505594E-01 1.349211803251E-01 3.385503715896E-01
H140 -1.349211803251E-01 3.744019505594E-01 -3.385503715896E-01


#===END
