###############################################################
#
#primitive cell cif file
#
###############################################################

posm29_data

_symmetry_space_group_name_H-M 'P 1'
_cell_length_a      13.86596031
_cell_length_b      13.86596031
_cell_length_c      14.21100000
_cell_angle_alpha   90.000000
_cell_angle_beta    90.000000
_cell_angle_gamma   150.032293

loop_
_atom_site_label
_atom_site_fract_x
_atom_site_fract_y
_atom_site_fract_z
C1 2.853346308245E-02 -2.628476005958E-02 1.319822245021E-03
C2 -8.752047718721E-02 -1.935257497604E-01 5.212124817008E-02
C3 1.983942195497E-01 9.162718306646E-02 -4.710896717015E-02
C4 -2.853346308245E-02 2.628476005958E-02 -1.319822245021E-03
C5 -2.648419861946E-01 -3.180675860553E-01 9.001182688277E-02
C6 -2.399674266152E-02 -2.389823531435E-01 7.528920951784E-02
C7 3.211931629059E-01 2.669436198450E-01 -8.708262547794E-02
C8 2.430253853320E-01 2.750868322557E-02 -7.125342117275E-02
C9 8.752047718721E-02 1.935257497604E-01 -5.212124817008E-02
C10 -1.983942195497E-01 -9.162718306646E-02 4.710896717015E-02
C11 -3.211931629059E-01 -2.669436198450E-01 8.708262547794E-02
C12 -3.898748300654E-01 -4.927216654543E-01 1.377599286289E-01
C13 -1.057327430561E-01 -3.896350546775E-01 3.064874874794E-02
C14 1.051582636170E-01 -1.433035541565E-01 1.490472822492E-01
C15 2.648419861946E-01 3.180675860553E-01 -9.001182688277E-02
C16 4.988919875554E-01 3.941161278739E-01 -1.317614806718E-01
C17 3.918951812560E-01 1.044625295665E-01 -2.882593618387E-02
C18 1.468981505758E-01 -9.733802161457E-02 -1.474774748196E-01
C19 2.399674266152E-02 2.389823531435E-01 -7.528920951784E-02
C20 -2.430253853320E-01 -2.750868322557E-02 7.125342117275E-02
C21 -4.988919875554E-01 -3.941161278739E-01 1.317614806718E-01
H22 -3.479535870478E-01 4.687322271209E-01 1.420705295846E-01
C23 4.413334723155E-01 3.897688928437E-01 1.776037467322E-01
H24 -2.054815993429E-01 -4.645842194668E-01 -2.688631228633E-02
C25 -6.069445354297E-02 -4.436874116093E-01 5.906033075406E-02
H26 1.688117733203E-01 -2.712221469463E-02 1.849217205899E-01
C27 1.527531755318E-01 -1.952738216657E-01 1.770451387767E-01
C28 3.898748300654E-01 4.927216654543E-01 -1.377599286289E-01
H29 -4.589490560609E-01 3.556695443833E-01 -1.319412303043E-01
C30 -3.856388044626E-01 -4.398389608356E-01 -1.743869292798E-01
H31 4.676244395043E-01 2.009714003581E-01 3.060006172057E-02
C32 4.438639603554E-01 5.905775462950E-02 -6.242514034607E-02
H33 3.246813689977E-02 -1.564147758484E-01 -1.813546810272E-01
C34 1.963263484029E-01 -1.455570814127E-01 -1.805100721046E-01
C35 1.057327430561E-01 3.896350546775E-01 -3.064874874794E-02
C36 -1.051582636170E-01 1.433035541565E-01 -1.490472822492E-01
C37 -3.918951812560E-01 -1.044625295665E-01 2.882593618387E-02
C38 -1.468981505758E-01 9.733802161457E-02 1.474774748196E-01
H39 4.589490560609E-01 -3.556695443833E-01 1.319412303043E-01
C40 3.856388044626E-01 4.398389608356E-01 1.743869292798E-01
H41 3.498785298305E-01 2.591166884373E-01 2.134022799460E-01
H42 -1.267574272924E-01 4.380955947094E-01 2.413722874090E-02
C43 6.931458084776E-02 -3.464233308483E-01 1.322733375478E-01
H44 2.546356172665E-01 -1.174346269005E-01 2.340480845616E-01
H45 3.479535870478E-01 -4.687322271209E-01 -1.420705295846E-01
C46 -4.413334723155E-01 -3.897688928437E-01 -1.776037467322E-01
H47 -2.527415986459E-01 -3.468221637942E-01 -2.078389593421E-01
H48 -4.388374344318E-01 1.216189041317E-01 -2.957323345781E-02
C49 3.459497897407E-01 -6.676041164978E-02 -1.380967540763E-01
H50 1.176301934481E-01 -2.445802504411E-01 -2.392245939943E-01
H51 2.054815993429E-01 4.645842194668E-01 2.688631228633E-02
C52 6.069445354297E-02 4.436874116093E-01 -5.906033075406E-02
H53 -1.688117733203E-01 2.712221469463E-02 -1.849217205899E-01
C54 -1.527531755318E-01 1.952738216657E-01 -1.770451387767E-01
H55 -4.676244395043E-01 -2.009714003581E-01 -3.060006172057E-02
C56 -4.438639603554E-01 -5.905775462950E-02 6.242514034607E-02
H57 -3.246813689977E-02 1.564147758484E-01 1.813546810272E-01
C58 -1.963263484029E-01 1.455570814127E-01 1.805100721046E-01
H59 2.527415986459E-01 3.468221637942E-01 2.078389593421E-01
H60 1.039913790345E-01 -3.892538465369E-01 1.542583299198E-01
H61 -3.498785298305E-01 -2.591166884373E-01 -2.134022799460E-01
H62 3.865750471104E-01 -1.025127601608E-01 -1.632470813582E-01
H63 1.267574272924E-01 -4.380955947094E-01 -2.413722874090E-02
C64 -6.931458084776E-02 3.464233308483E-01 -1.322733375478E-01
H65 -2.546356172665E-01 1.174346269005E-01 -2.340480845616E-01
H66 4.388374344318E-01 -1.216189041317E-01 2.957323345781E-02
C67 -3.459497897407E-01 6.676041164978E-02 1.380967540763E-01
H68 -1.176301934481E-01 2.445802504411E-01 2.392245939943E-01
H69 -1.039913790345E-01 3.892538465369E-01 -1.542583299198E-01
H70 -3.865750471104E-01 1.025127601608E-01 1.632470813582E-01
C71 4.737152399404E-01 -4.714665369175E-01 4.986801777550E-01
C72 -4.083728169335E-01 -3.016057804503E-01 -4.528910328299E-01
C73 3.064742502396E-01 4.124795228128E-01 4.478787518299E-01
C74 -4.737152399404E-01 4.714665369175E-01 -4.986801777550E-01
C75 -2.330563801550E-01 -1.788068370941E-01 -4.129173745221E-01
C76 -4.724913167744E-01 -2.569746146680E-01 -4.287465788272E-01
C77 1.819324139447E-01 2.351580138054E-01 4.099881731172E-01
C78 2.610176468565E-01 4.760032573385E-01 4.247107904822E-01
C79 4.083728169335E-01 3.016057804503E-01 4.528910328298E-01
C80 -3.064742502396E-01 -4.124795228128E-01 -4.478787518299E-01
C81 -1.819324139447E-01 -2.351580138054E-01 -4.099881731172E-01
C82 -1.058838721261E-01 -1.108012444638E-03 -3.682385193282E-01
C83 -3.955374704335E-01 -1.081048187440E-01 -4.711740638161E-01
C84 4.026619783854E-01 -3.531018494242E-01 -3.525225251804E-01
C85 2.330563801550E-01 1.788068370941E-01 4.129173745221E-01
C86 7.278334545703E-03 1.101251699346E-01 3.622400713711E-01
C87 1.103649453225E-01 3.942672569439E-01 4.693512512521E-01
C88 3.566964458435E-01 -3.948417363830E-01 3.509527177508E-01
C89 4.724913167744E-01 2.569746146680E-01 4.287465788272E-01
C90 -2.610176468565E-01 -4.760032573385E-01 -4.247107904822E-01
C91 -7.278334545703E-03 -1.101251699346E-01 -3.622400713711E-01
H92 -1.443304556167E-01 4.105094393912E-02 -3.680587696957E-01
C93 6.016103916445E-02 1.143611955374E-01 -3.256130707202E-01
H94 -2.990285996419E-01 -3.237556049565E-02 4.693999382794E-01
C95 -4.409422453705E-01 -5.613603964457E-02 -4.375748596539E-01
H96 3.435852241516E-01 -4.675318631002E-01 -3.186453189728E-01
C97 3.544429185873E-01 -3.036736515971E-01 -3.194899278954E-01
C98 1.058838721261E-01 1.108012444638E-03 3.682385193282E-01
H99 -3.126777287913E-02 1.520464129522E-01 3.579294704154E-01
C100 -1.102311071563E-01 -5.866652768446E-02 3.223962532678E-01
H101 3.541578053315E-02 2.945184006571E-01 -4.731136877137E-01
C102 5.631258839066E-02 4.393055464570E-01 4.409396692459E-01
H103 4.728777853054E-01 -3.311882266797E-01 3.150782794101E-01
C104 3.047261783343E-01 -3.472468244682E-01 3.229548612233E-01
C105 3.955374704335E-01 1.081048187440E-01 4.711740638161E-01
C106 -4.026619783854E-01 3.531018494242E-01 3.525225251804E-01
C107 -1.103649453225E-01 -3.942672569439E-01 -4.693512512521E-01
C108 -3.566964458435E-01 3.948417363830E-01 -3.509527177508E-01
H109 3.126777287913E-02 -1.520464129522E-01 -3.579294704154E-01
C110 1.102311071563E-01 5.866652768446E-02 -3.223962532678E-01
H111 1.531778362058E-01 2.472584013541E-01 -2.921610406579E-01
H112 -3.783810958683E-01 6.116256556821E-02 -4.704267665422E-01
C113 4.332395883502E-01 -1.540502102593E-01 -3.619032459237E-01
H114 2.554197495589E-01 -3.823698065519E-01 -2.607754060057E-01
H115 1.443304556167E-01 -4.105094393912E-02 3.680587696957E-01
C116 -6.016103916445E-02 -1.143611955374E-01 3.256130707202E-01
H117 -2.408833115627E-01 -1.501214701695E-01 2.865977200540E-01
H118 -6.190440529056E-02 3.732425727076E-01 4.758627712591E-01
C119 1.535766691517E-01 -4.306854191522E-01 3.677266624522E-01
H120 3.825653730995E-01 -2.453643827335E-01 2.659519154384E-01
H121 2.990285996419E-01 3.237556049565E-02 -4.693999382794E-01
C122 4.409422453705E-01 5.613603964457E-02 4.375748596539E-01
H123 -3.435852241516E-01 4.675318631002E-01 3.186453189728E-01
C124 -3.544429185873E-01 3.036736515971E-01 3.194899278954E-01
H125 -3.541578053315E-02 -2.945184006571E-01 4.731136877137E-01
C126 -5.631258839066E-02 -4.393055464570E-01 -4.409396692459E-01
H127 -4.728777853054E-01 3.311882266797E-01 -3.150782794101E-01
C128 -3.047261783343E-01 3.472468244682E-01 -3.229548612233E-01
H129 2.408833115627E-01 1.501214701695E-01 -2.865977200540E-01
H130 3.974872398392E-01 -1.134249528896E-01 -3.367529186418E-01
H131 -1.531778362058E-01 -2.472584013541E-01 2.921610406579E-01
H132 1.107461534631E-01 -3.960086209655E-01 3.457416700802E-01
H133 3.783810958683E-01 -6.116256556821E-02 4.704267665422E-01
C134 -4.332395883502E-01 1.540502102593E-01 3.619032459237E-01
H135 -2.554197495589E-01 3.823698065519E-01 2.607754060057E-01
H136 6.190440529056E-02 -3.732425727076E-01 -4.758627712591E-01
C137 -1.535766691517E-01 4.306854191522E-01 -3.677266624522E-01
H138 -3.825653730995E-01 2.453643827335E-01 -2.659519154384E-01
H139 -3.974872398392E-01 1.134249528896E-01 3.367529186418E-01
H140 -1.107461534631E-01 3.960086209655E-01 -3.457416700802E-01


#===END
