###############################################################
#
#primitive cell cif file
#
###############################################################

posm49_data

_symmetry_space_group_name_H-M 'P 1'
_cell_length_a      13.86596031
_cell_length_b      13.86596031
_cell_length_c      14.21100000
_cell_angle_alpha   90.000000
_cell_angle_beta    90.000000
_cell_angle_gamma   150.032293

loop_
_atom_site_label
_atom_site_fract_x
_atom_site_fract_y
_atom_site_fract_z
C1 2.717865571903E-02 -2.717865571903E-02 0.000000000000E+00
C2 -8.815176053908E-02 -1.941932035482E-01 5.061685378369E-02
C3 1.941932035482E-01 8.815176053908E-02 -5.061685378369E-02
C4 -2.763956742301E-02 2.763956742301E-02 0.000000000000E+00
C5 -2.656726258007E-01 -3.193402247924E-01 8.858664629048E-02
C6 -2.348341992265E-02 -2.383044515117E-01 7.469442455147E-02
C7 3.193402247924E-01 2.656726258007E-01 -8.858664629048E-02
C8 2.383044515117E-01 2.348341992265E-02 -7.469442455147E-02
C9 9.099589971459E-02 1.977267657618E-01 -4.861336155654E-02
C10 -1.977267657618E-01 -9.099589971459E-02 4.861336155654E-02
C11 -3.199205241689E-01 -2.661129802389E-01 8.850780607023E-02
C12 -3.934860054639E-01 -4.974648033197E-01 1.330387889172E-01
C13 -1.035893504657E-01 -3.881105264640E-01 3.047887256491E-02
C14 1.034657642827E-01 -1.436370375076E-01 1.495850711121E-01
C15 2.661129802389E-01 3.199205241689E-01 -8.850780607023E-02
C16 4.974648033197E-01 3.934860054639E-01 -1.330387889172E-01
C17 3.881105264640E-01 1.035893504657E-01 -3.047887256491E-02
C18 1.436370375076E-01 -1.034657642827E-01 -1.495850711121E-01
C19 2.802200596444E-02 2.437032869639E-01 -7.184820613912E-02
C20 -2.437032869639E-01 -2.802200596444E-02 7.184820613912E-02
C21 -4.941488496900E-01 -3.905049524754E-01 1.364826203834E-01
H22 -3.546647392425E-01 4.607810846651E-01 1.339065330127E-01
C23 4.392392253953E-01 3.860345826016E-01 1.744853401982E-01
H24 -2.014475709410E-01 -4.622269248553E-01 -2.795635190733E-02
C25 -6.007133057694E-02 -4.430390458783E-01 6.057437234614E-02
H26 1.661119447013E-01 -2.791375118524E-02 1.850840059510E-01
C27 1.497926100794E-01 -1.963019764370E-01 1.792585238742E-01
C28 3.905049524754E-01 4.941488496900E-01 -1.364826203834E-01
H29 -4.607810846651E-01 3.546647392425E-01 -1.339065330127E-01
C30 -3.860345826016E-01 -4.392392253953E-01 -1.744853401982E-01
H31 4.622269248553E-01 2.014475709410E-01 2.795635190733E-02
C32 4.430390458783E-01 6.007133057694E-02 -6.057437234614E-02
H33 2.791375118524E-02 -1.661119447013E-01 -1.850840059510E-01
C34 1.963019764370E-01 -1.497926100794E-01 -1.792585238742E-01
C35 1.066059221569E-01 3.934197094696E-01 -2.899581236690E-02
C36 -9.903052094889E-02 1.465646672248E-01 -1.469396859567E-01
C37 -3.934197094696E-01 -1.066059221569E-01 2.899581236690E-02
C38 -1.465646672248E-01 9.903052094889E-02 1.469396859567E-01
H39 4.669001985166E-01 -3.489583921886E-01 1.401052268763E-01
C40 3.893731147048E-01 4.419332077558E-01 1.775053358138E-01
H41 3.452080464875E-01 2.523553840397E-01 2.074264464501E-01
H42 -1.252308490121E-01 4.391067015636E-01 2.597599983998E-02
C43 6.733658283998E-02 -3.471353923591E-01 1.349994544413E-01
H44 2.501268190738E-01 -1.190918966063E-01 2.370347562390E-01
H45 3.489583921886E-01 -4.669001985166E-01 -1.401052268763E-01
C46 -4.419332077558E-01 -3.893731147048E-01 -1.775053358138E-01
H47 -2.523553840397E-01 -3.452080464875E-01 -2.074264464501E-01
H48 -4.391067015636E-01 1.252308490121E-01 -2.597599983998E-02
C49 3.471353923591E-01 -6.733658283998E-02 -1.349994544413E-01
H50 1.190918966063E-01 -2.501268190738E-01 -2.370347562390E-01
H51 2.050054287600E-01 4.699817341159E-01 2.953002209957E-02
C52 5.968087759553E-02 4.445123260865E-01 -6.091109875399E-02
H53 -1.591146044675E-01 3.167660040917E-02 -1.811923956660E-01
C54 -1.485176468652E-01 1.952981936317E-01 -1.782966870071E-01
H55 -4.699817341159E-01 -2.050054287600E-01 -2.953002209957E-02
C56 -4.445123260865E-01 -5.968087759553E-02 6.091109875399E-02
H57 -3.167660040917E-02 1.591146044675E-01 1.811923956660E-01
C58 -1.952981936317E-01 1.485176468652E-01 1.782966870071E-01
H59 2.595029030435E-01 3.514926471373E-01 2.138147928379E-01
H60 1.011635072371E-01 -3.904352963562E-01 1.579991530113E-01
H61 -3.514926471373E-01 -2.595029030435E-01 -2.138147928379E-01
H62 3.904352963562E-01 -1.011635072371E-01 -1.579991530113E-01
H63 1.231454824119E-01 -4.378263275776E-01 -2.773446235874E-02
C64 -6.873840965755E-02 3.452377282299E-01 -1.353706371827E-01
H65 -2.490890486337E-01 1.159729237422E-01 -2.362379223169E-01
H66 4.378263275776E-01 -1.231454824119E-01 2.773446235874E-02
C67 -3.452377282299E-01 6.873840965755E-02 1.353706371827E-01
H68 -1.159729237422E-01 2.490890486337E-01 2.362379223169E-01
H69 -1.053406319583E-01 3.853935972910E-01 -1.595062582667E-01
H70 -3.853935972910E-01 1.053406319583E-01 1.595062582667E-01
C71 4.728213442810E-01 -4.728213442810E-01 -5.000000000000E-01
C72 -4.118482394609E-01 -3.058067964518E-01 -4.493831462163E-01
C73 3.058067964518E-01 4.118482394609E-01 4.493831462163E-01
C74 -4.723604325770E-01 4.723604325770E-01 -5.000000000000E-01
C75 -2.343273741993E-01 -1.806597752076E-01 -4.114133537095E-01
C76 -4.765165800774E-01 -2.616955484883E-01 -4.253055754485E-01
C77 1.806597752076E-01 2.343273741993E-01 4.114133537095E-01
C78 2.616955484883E-01 4.765165800774E-01 4.253055754485E-01
C79 4.090041002854E-01 3.022732342382E-01 4.513866384435E-01
C80 -3.022732342382E-01 -4.090041002854E-01 -4.513866384435E-01
C81 -1.800794758311E-01 -2.338870197611E-01 -4.114921939298E-01
C82 -1.065139945361E-01 -2.535196680311E-03 -3.669612110828E-01
C83 -3.964106495343E-01 -1.118894735360E-01 -4.695211274351E-01
C84 3.965342357173E-01 -3.563629624924E-01 -3.504149288879E-01
C85 2.338870197611E-01 1.800794758311E-01 4.114921939298E-01
C86 2.535196680311E-03 1.065139945361E-01 3.669612110828E-01
C87 1.118894735360E-01 3.964106495343E-01 4.695211274351E-01
C88 3.563629624924E-01 -3.965342357173E-01 3.504149288879E-01
C89 4.719779940356E-01 2.562967130361E-01 4.281517938609E-01
C90 -2.562967130361E-01 -4.719779940356E-01 -4.281517938609E-01
C91 -5.851150310030E-03 -1.094950475246E-01 -3.635173796166E-01
H92 -1.453352607575E-01 3.921891533488E-02 -3.660934669873E-01
C93 6.076077460469E-02 1.139654173984E-01 -3.255146598018E-01
H94 -2.985524290590E-01 -3.777307514467E-02 4.720436480927E-01
C95 -4.399286694231E-01 -5.696095412171E-02 -4.394256276539E-01
H96 3.338880552987E-01 -4.720862488148E-01 -3.149159940490E-01
C97 3.502073899206E-01 -3.036980235630E-01 -3.207414761258E-01
C98 1.094950475246E-01 5.851150310030E-03 3.635173796166E-01
H99 -3.921891533488E-02 1.453352607575E-01 3.660934669873E-01
C100 -1.139654173984E-01 -6.076077460469E-02 3.255146598018E-01
H101 3.777307514467E-02 2.985524290590E-01 -4.720436480927E-01
C102 5.696095412171E-02 4.399286694231E-01 4.394256276539E-01
H103 4.720862488148E-01 -3.338880552987E-01 3.149159940490E-01
C104 3.036980235630E-01 -3.502073899206E-01 3.207414761258E-01
C105 3.933940778431E-01 1.065802905304E-01 4.710041876331E-01
C106 -4.009694790511E-01 3.534353327752E-01 3.530603140433E-01
C107 -1.065802905304E-01 -3.933940778431E-01 -4.710041876331E-01
C108 -3.534353327752E-01 4.009694790511E-01 -3.530603140433E-01
H109 3.309980148338E-02 -1.510416078114E-01 -3.598947731237E-01
C110 1.106268852952E-01 5.806679224422E-02 -3.224946641862E-01
H111 1.547919535125E-01 2.476446159603E-01 -2.925735535499E-01
H112 -3.747691509879E-01 6.089329843639E-02 -4.740240001600E-01
C113 4.326634171600E-01 -1.528646076409E-01 -3.650005455587E-01
H114 2.498731809262E-01 -3.809081033937E-01 -2.629652437610E-01
H115 1.510416078114E-01 -3.309980148338E-02 3.598947731237E-01
C116 -5.806679224422E-02 -1.106268852952E-01 3.224946641862E-01
H117 -2.476446159603E-01 -1.547919535125E-01 2.925735535499E-01
H118 -6.089329843639E-02 3.747691509879E-01 4.740240001600E-01
C119 1.528646076409E-01 -4.326634171600E-01 3.650005455587E-01
H120 3.809081033937E-01 -2.498731809262E-01 2.629652437610E-01
H121 2.949945712400E-01 3.001826588414E-02 -4.704699779004E-01
C122 4.403191224045E-01 5.548767391352E-02 4.390889012460E-01
H123 -3.408853955325E-01 4.683233995908E-01 3.188076043340E-01
C124 -3.514823531348E-01 3.047018063683E-01 3.217033129929E-01
H125 -3.001826588414E-02 -2.949945712400E-01 4.704699779004E-01
C126 -5.548767391352E-02 -4.403191224045E-01 -4.390889012460E-01
H127 -4.683233995908E-01 3.408853955325E-01 -3.188076043340E-01
C128 -3.047018063683E-01 3.514823531348E-01 -3.217033129929E-01
H129 2.404970969565E-01 1.485073528627E-01 -2.861852071621E-01
H130 3.988364927629E-01 -1.095647036438E-01 -3.420008469887E-01
H131 -1.485073528627E-01 -2.404970969565E-01 2.861852071621E-01
H132 1.095647036438E-01 -3.988364927629E-01 3.420008469887E-01
H133 3.768545175881E-01 -6.217367242238E-02 4.722655376413E-01
C134 -4.312615903424E-01 1.547622717701E-01 3.646293628173E-01
H135 -2.509109513663E-01 3.840270762578E-01 2.637620776831E-01
H136 6.217367242238E-02 -3.768545175881E-01 -4.722655376413E-01
C137 -1.547622717701E-01 4.312615903424E-01 -3.646293628173E-01
H138 -3.840270762578E-01 2.509109513663E-01 -2.637620776831E-01
H139 -3.946593680417E-01 1.146064027090E-01 3.404937417333E-01
H140 -1.146064027090E-01 3.946593680417E-01 -3.404937417333E-01


#===END
