###############################################################
#
#primitive cell cif file
#
###############################################################

posm36_data

_symmetry_space_group_name_H-M 'P 1'
_cell_length_a      13.86596031
_cell_length_b      13.86596031
_cell_length_c      14.21100000
_cell_angle_alpha   90.000000
_cell_angle_beta    90.000000
_cell_angle_gamma   150.032293

loop_
_atom_site_label
_atom_site_fract_x
_atom_site_fract_y
_atom_site_fract_z
C1 2.735814514864E-02 -2.735814514864E-02 0.000000000000E+00
C2 -9.004722101615E-02 -1.962245617289E-01 4.932666592858E-02
C3 1.962245617289E-01 9.004722101615E-02 -4.932666592858E-02
C4 -2.735814514864E-02 2.735814514864E-02 0.000000000000E+00
C5 -2.664771260715E-01 -3.201875752319E-01 8.811634391711E-02
C6 -2.563436181436E-02 -2.404643092824E-01 7.310573032834E-02
C7 3.201875752319E-01 2.664771260715E-01 -8.811634391711E-02
C8 2.404643092824E-01 2.563436181436E-02 -7.310573032834E-02
C9 9.004722101615E-02 1.962245617289E-01 -4.932666592858E-02
C10 -1.962245617289E-01 -9.004722101615E-02 4.932666592858E-02
C11 -3.201875752319E-01 -2.664771260715E-01 8.811634391711E-02
C12 -3.923308210525E-01 -4.962141461623E-01 1.343824937306E-01
C13 -1.008881249961E-01 -3.868117585244E-01 2.818159497797E-02
C14 9.859362702373E-02 -1.464401496592E-01 1.492829328939E-01
C15 2.664771260715E-01 3.201875752319E-01 -8.811634391711E-02
C16 4.962141461623E-01 3.923308210525E-01 -1.343824937306E-01
C17 3.868117585244E-01 1.008881249961E-01 -2.818159497797E-02
C18 1.464401496592E-01 -9.859362702373E-02 -1.492829328939E-01
C19 2.563436181436E-02 2.404643092824E-01 -7.310573032834E-02
C20 -2.404643092824E-01 -2.563436181436E-02 7.310573032834E-02
C21 -4.962141461623E-01 -3.923308210525E-01 1.343824937306E-01
H22 -3.521085375559E-01 4.634462037919E-01 1.364716296675E-01
C23 4.406230206722E-01 3.877133268106E-01 1.759198468413E-01
H24 -1.974344166562E-01 -4.610572049154E-01 -3.098456828140E-02
C25 -5.335267120125E-02 -4.376547630841E-01 5.871732095778E-02
H26 1.562978848414E-01 -3.400455477108E-02 1.851400675613E-01
C27 1.488653021975E-01 -1.949130562556E-01 1.793170445899E-01
C28 3.923308210525E-01 4.962141461623E-01 -1.343824937306E-01
H29 -4.634462037919E-01 3.521085375559E-01 -1.364716296675E-01
C30 -3.877133268106E-01 -4.406230206722E-01 -1.759198468413E-01
H31 4.610572049154E-01 1.974344166562E-01 3.098456828140E-02
C32 4.376547630841E-01 5.335267120125E-02 -5.871732095778E-02
H33 3.400455477108E-02 -1.562978848414E-01 -1.851400675613E-01
C34 1.949130562556E-01 -1.488653021975E-01 -1.793170445899E-01
C35 1.008881249961E-01 3.868117585244E-01 -2.818159497797E-02
C36 -9.859362702373E-02 1.464401496592E-01 -1.492829328939E-01
C37 -3.868117585244E-01 -1.008881249961E-01 2.818159497797E-02
C38 -1.464401496592E-01 9.859362702373E-02 1.492829328939E-01
H39 4.634462037919E-01 -3.521085375559E-01 1.364716296675E-01
C40 3.877133268106E-01 4.406230206722E-01 1.759198468413E-01
H41 3.485901590691E-01 2.561168353772E-01 2.106825262429E-01
H42 -1.151940971425E-01 4.466305039770E-01 2.392774644501E-02
C43 7.262334674487E-02 -3.413467268266E-01 1.340275674729E-01
H44 2.475339234904E-01 -1.179162976826E-01 2.379523728831E-01
H45 3.521085375559E-01 -4.634462037919E-01 -1.364716296675E-01
C46 -4.406230206722E-01 -3.877133268106E-01 -1.759198468413E-01
H47 -2.561168353772E-01 -3.485901590691E-01 -2.106825262429E-01
H48 -4.466305039770E-01 1.151940971425E-01 -2.392774644501E-02
C49 3.413467268266E-01 -7.262334674487E-02 -1.340275674729E-01
H50 1.179162976826E-01 -2.475339234904E-01 -2.379523728831E-01
H51 1.974344166562E-01 4.610572049154E-01 3.098456828140E-02
C52 5.335267120125E-02 4.376547630841E-01 -5.871732095778E-02
H53 -1.562978848414E-01 3.400455477108E-02 -1.851400675613E-01
C54 -1.488653021975E-01 1.949130562556E-01 -1.793170445899E-01
H55 -4.610572049154E-01 -1.974344166562E-01 -3.098456828140E-02
C56 -4.376547630841E-01 -5.335267120125E-02 5.871732095778E-02
H57 -3.400455477108E-02 1.562978848414E-01 1.851400675613E-01
C58 -1.949130562556E-01 1.488653021975E-01 1.793170445899E-01
H59 2.561168353772E-01 3.485901590691E-01 2.106825262429E-01
H60 1.097512345123E-01 -3.813493106063E-01 1.571313550572E-01
H61 -3.485901590691E-01 -2.561168353772E-01 -2.106825262429E-01
H62 3.813493106063E-01 -1.097512345123E-01 -1.571313550572E-01
H63 1.151940971425E-01 -4.466305039770E-01 -2.392774644501E-02
C64 -7.262334674487E-02 3.413467268266E-01 -1.340275674729E-01
H65 -2.475339234904E-01 1.179162976826E-01 -2.379523728831E-01
H66 4.466305039770E-01 -1.151940971425E-01 2.392774644501E-02
C67 -3.413467268266E-01 7.262334674487E-02 1.340275674729E-01
H68 -1.179162976826E-01 2.475339234904E-01 2.379523728831E-01
H69 -1.097512345123E-01 3.813493106063E-01 -1.571313550572E-01
H70 -3.813493106063E-01 1.097512345123E-01 1.571313550572E-01
C71 4.725399220066E-01 -4.725399220066E-01 -5.000000000000E-01
C72 -4.108995607625E-01 -3.043045924188E-01 -4.500964505883E-01
C73 3.043045924188E-01 4.108995607625E-01 4.500964505883E-01
C74 -4.725399220066E-01 4.725399220066E-01 -5.000000000000E-01
C75 -2.346915200319E-01 -1.809268262707E-01 -4.110218915564E-01
C76 -4.741289359273E-01 -2.584565708069E-01 -4.265630996377E-01
C77 1.809268262707E-01 2.346915200319E-01 4.110218915564E-01
C78 2.584565708069E-01 4.741289359273E-01 4.265630996377E-01
C79 4.108995607625E-01 3.043045924188E-01 4.500964505883E-01
C80 -3.043045924188E-01 -4.108995607625E-01 -4.500964505883E-01
C81 -1.809268262707E-01 -2.346915200319E-01 -4.110218915564E-01
C82 -1.083398631132E-01 -4.600493152662E-03 -3.648610844299E-01
C83 -3.906928523735E-01 -1.052815225908E-01 -4.687069100462E-01
C84 3.960973417921E-01 -3.562384449268E-01 -3.527581758251E-01
C85 2.346915200319E-01 1.809268262707E-01 4.110218915564E-01
C86 4.600493152662E-03 1.083398631132E-01 3.648610844299E-01
C87 1.052815225908E-01 3.906928523735E-01 4.687069100462E-01
C88 3.562384449268E-01 -3.960973417921E-01 3.527581758251E-01
C89 4.741289359273E-01 2.584565708069E-01 4.265630996377E-01
C90 -2.584565708069E-01 -4.741289359273E-01 -4.265630996377E-01
C91 -4.600493152662E-03 -1.083398631132E-01 -3.648610844299E-01
H92 -1.484854061248E-01 3.576492061014E-02 -3.624598697786E-01
C93 5.945058752113E-02 1.123056295043E-01 -3.239291708294E-01
H94 -2.909814169551E-01 -2.884854594418E-02 4.734981942745E-01
C95 -4.336004630288E-01 -5.010339111934E-02 -4.372318498576E-01
H96 3.310713356726E-01 -4.744142031767E-01 -3.188636659442E-01
C97 3.505550452530E-01 -3.033128861869E-01 -3.217618337086E-01
C98 1.083398631132E-01 4.600493152662E-03 3.648610844299E-01
H99 -3.576492061014E-02 1.484854061248E-01 3.624598697786E-01
C100 -1.123056295043E-01 -5.945058752113E-02 3.239291708294E-01
H101 2.884854594418E-02 2.909814169551E-01 -4.734981942745E-01
C102 5.010339111934E-02 4.336004630288E-01 4.372318498576E-01
H103 4.744142031767E-01 -3.310713356726E-01 3.188636659442E-01
C104 3.033128861869E-01 -3.505550452530E-01 3.217618337086E-01
C105 3.906928523735E-01 1.052815225908E-01 4.687069100462E-01
C106 -3.960973417921E-01 3.562384449268E-01 3.527581758251E-01
C107 -1.052815225908E-01 -3.906928523735E-01 -4.687069100462E-01
C108 -3.562384449268E-01 3.960973417921E-01 -3.527581758251E-01
H109 3.576492061014E-02 -1.484854061248E-01 -3.624598697786E-01
C110 1.123056295043E-01 5.945058752113E-02 -3.239291708294E-01
H111 1.518894654444E-01 2.442585482939E-01 -2.894412869549E-01
H112 -3.668177657184E-01 6.969747483581E-02 -4.702172842463E-01
C113 4.365483542473E-01 -1.489736062376E-01 -3.636574758488E-01
H114 2.483180557828E-01 -3.828514773340E-01 -2.646796943272E-01
H115 1.484854061248E-01 -3.576492061014E-02 3.624598697786E-01
C116 -5.945058752113E-02 -1.123056295043E-01 3.239291708294E-01
H117 -2.442585482939E-01 -1.518894654444E-01 2.894412869549E-01
H118 -6.969747483581E-02 3.668177657184E-01 4.702172842463E-01
C119 1.489736062376E-01 -4.365483542473E-01 3.636574758488E-01
H120 3.828514773340E-01 -2.483180557828E-01 2.646796943272E-01
H121 2.909814169551E-01 2.884854594418E-02 -4.734981942745E-01
C122 4.336004630288E-01 5.010339111934E-02 4.372318498576E-01
H123 -3.310713356726E-01 4.744142031767E-01 3.188636659442E-01
C124 -3.505550452530E-01 3.033128861869E-01 3.217618337086E-01
H125 -2.884854594418E-02 -2.909814169551E-01 4.734981942745E-01
C126 -5.010339111934E-02 -4.336004630288E-01 -4.372318498576E-01
H127 -4.744142031767E-01 3.310713356726E-01 -3.188636659442E-01
C128 -3.033128861869E-01 3.505550452530E-01 -3.217618337086E-01
H129 2.442585482939E-01 1.518894654444E-01 -2.894412869549E-01
H130 4.032470953169E-01 -1.055204169591E-01 -3.396259437792E-01
H131 -1.518894654444E-01 -2.442585482939E-01 2.894412869549E-01
H132 1.055204169591E-01 -4.032470953169E-01 3.396259437792E-01
H133 3.668177657184E-01 -6.969747483581E-02 4.702172842463E-01
C134 -4.365483542473E-01 1.489736062376E-01 3.636574758488E-01
H135 -2.483180557828E-01 3.828514773340E-01 2.646796943272E-01
H136 6.969747483581E-02 -3.668177657184E-01 -4.702172842463E-01
C137 -1.489736062376E-01 4.365483542473E-01 -3.636574758488E-01
H138 -3.828514773340E-01 2.483180557828E-01 -2.646796943272E-01
H139 -4.032470953169E-01 1.055204169591E-01 3.396259437792E-01
H140 -1.055204169591E-01 4.032470953169E-01 -3.396259437792E-01


#===END
