###############################################################
#
#primitive cell cif file
#
###############################################################

posm15_data

_symmetry_space_group_name_H-M 'P 1'
_cell_length_a      13.86596031
_cell_length_b      13.86596031
_cell_length_c      14.21100000
_cell_angle_alpha   90.000000
_cell_angle_beta    90.000000
_cell_angle_gamma   150.032293

loop_
_atom_site_label
_atom_site_fract_x
_atom_site_fract_y
_atom_site_fract_z
C1 2.741298895871E-02 -2.741298895871E-02 0.000000000000E+00
C2 -9.035909758656E-02 -1.966926292001E-01 4.911005541292E-02
C3 1.966926292001E-01 9.035909758656E-02 -4.911005541292E-02
C4 -2.741298895871E-02 2.741298895871E-02 0.000000000000E+00
C5 -2.666523660261E-01 -3.203572252300E-01 8.802337443389E-02
C6 -2.892144593962E-02 -2.444431216484E-01 7.155952360481E-02
C7 3.203572252300E-01 2.666523660261E-01 -8.802337443389E-02
C8 2.444431216484E-01 2.892144593962E-02 -7.155952360481E-02
C9 9.035909758656E-02 1.966926292001E-01 -4.911005541292E-02
C10 -1.966926292001E-01 -9.035909758656E-02 4.911005541292E-02
C11 -3.203572252300E-01 -2.666523660261E-01 8.802337443389E-02
C12 -3.933213964446E-01 -4.971159168508E-01 1.337515897013E-01
C13 -1.077003429309E-01 -3.923282718242E-01 2.542564421279E-02
C14 9.424452794526E-02 -1.540530522538E-01 1.476492476130E-01
C15 2.666523660261E-01 3.203572252300E-01 -8.802337443389E-02
C16 4.971159168508E-01 3.933213964446E-01 -1.337515897013E-01
C17 3.923282718242E-01 1.077003429309E-01 -2.542564421279E-02
C18 1.540530522538E-01 -9.424452794526E-02 -1.476492476130E-01
C19 2.892144593962E-02 2.444431216484E-01 -7.155952360481E-02
C20 -2.444431216484E-01 -2.892144593962E-02 7.155952360481E-02
C21 -4.971159168508E-01 -3.933213964446E-01 1.337515897013E-01
H22 -3.529900501598E-01 4.626865249651E-01 1.360988863815E-01
C23 4.384927277220E-01 3.856000236364E-01 1.743362604874E-01
H24 -2.030007290364E-01 -4.634731382060E-01 -3.384308489839E-02
C25 -6.543960551204E-02 -4.487524001644E-01 5.492612034276E-02
H26 1.554869871823E-01 -3.993731707180E-02 1.844408782430E-01
C27 1.393040372663E-01 -2.081481923193E-01 1.766389122312E-01
C28 3.933213964446E-01 4.971159168508E-01 -1.337515897013E-01
H29 -4.626865249651E-01 3.529900501598E-01 -1.360988863815E-01
C30 -3.856000236364E-01 -4.384927277220E-01 -1.743362604874E-01
H31 4.634731382060E-01 2.030007290364E-01 3.384308489839E-02
C32 4.487524001644E-01 6.543960551204E-02 -5.492612034276E-02
H33 3.993731707180E-02 -1.554869871823E-01 -1.844408782430E-01
C34 2.081481923193E-01 -1.393040372663E-01 -1.766389122312E-01
C35 1.077003429309E-01 3.923282718242E-01 -2.542564421279E-02
C36 -9.424452794526E-02 1.540530522538E-01 -1.476492476130E-01
C37 -3.923282718242E-01 -1.077003429309E-01 2.542564421279E-02
C38 -1.540530522538E-01 9.424452794526E-02 1.476492476130E-01
H39 4.626865249651E-01 -3.529900501598E-01 1.360988863815E-01
C40 3.856000236364E-01 4.384927277220E-01 1.743362604874E-01
H41 3.455410905635E-01 2.530850523169E-01 2.083498319720E-01
H42 -1.291427555201E-01 4.351786929276E-01 1.888438911020E-02
C43 5.874278828614E-02 -3.566849435101E-01 1.304323986304E-01
H44 2.373760389300E-01 -1.335799157556E-01 2.352288967092E-01
H45 3.529900501598E-01 -4.626865249651E-01 -1.360988863815E-01
C46 -4.384927277220E-01 -3.856000236364E-01 -1.743362604874E-01
H47 -2.530850523169E-01 -3.455410905635E-01 -2.083498319720E-01
H48 -4.351786929276E-01 1.291427555201E-01 -1.888438911020E-02
C49 3.566849435101E-01 -5.874278828614E-02 -1.304323986304E-01
H50 1.335799157556E-01 -2.373760389300E-01 -2.352288967092E-01
H51 2.030007290364E-01 4.634731382060E-01 3.384308489839E-02
C52 6.543960551204E-02 4.487524001644E-01 -5.492612034276E-02
H53 -1.554869871823E-01 3.993731707180E-02 -1.844408782430E-01
C54 -1.393040372663E-01 2.081481923193E-01 -1.766389122312E-01
H55 -4.634731382060E-01 -2.030007290364E-01 -3.384308489839E-02
C56 -4.487524001644E-01 -6.543960551204E-02 5.492612034276E-02
H57 -3.993731707180E-02 1.554869871823E-01 1.844408782430E-01
C58 -2.081481923193E-01 1.393040372663E-01 1.766389122312E-01
H59 2.530850523169E-01 3.455410905635E-01 2.083498319720E-01
H60 9.159069970762E-02 -4.011559165765E-01 1.529128351287E-01
H61 -3.455410905635E-01 -2.530850523169E-01 -2.083498319720E-01
H62 4.011559165765E-01 -9.159069970762E-02 -1.529128351287E-01
H63 1.291427555201E-01 -4.351786929276E-01 -1.888438911020E-02
C64 -5.874278828614E-02 3.566849435101E-01 -1.304323986304E-01
H65 -2.373760389300E-01 1.335799157556E-01 -2.352288967092E-01
H66 4.351786929276E-01 -1.291427555201E-01 1.888438911020E-02
C67 -3.566849435101E-01 5.874278828614E-02 1.304323986304E-01
H68 -1.335799157556E-01 2.373760389300E-01 2.352288967092E-01
H69 -9.159069970762E-02 4.011559165765E-01 -1.529128351287E-01
H70 -4.011559165765E-01 9.159069970762E-02 1.529128351287E-01
C71 4.725947658167E-01 -4.725947658167E-01 -5.000000000000E-01
C72 -4.112114373329E-01 -3.047726598900E-01 -4.498798400727E-01
C73 3.047726598900E-01 4.112114373329E-01 4.498798400727E-01
C74 -4.725947658167E-01 4.725947658167E-01 -5.000000000000E-01
C75 -2.348667599865E-01 -1.810964762688E-01 -4.109289220732E-01
C76 -4.774160200525E-01 -2.624353831728E-01 -4.250168929142E-01
C77 1.810964762688E-01 2.348667599865E-01 4.109289220732E-01
C78 2.624353831728E-01 4.774160200525E-01 4.250168929142E-01
C79 4.112114373329E-01 3.047726598900E-01 4.498798400727E-01
C80 -3.047726598900E-01 -4.112114373329E-01 -4.498798400727E-01
C81 -1.810964762688E-01 -2.348667599865E-01 -4.109289220732E-01
C82 -1.093304385053E-01 -5.502263841108E-03 -3.642301804006E-01
C83 -3.975050703083E-01 -1.107980358906E-01 -4.659509592810E-01
C84 3.917482427136E-01 -3.638513475215E-01 -3.511244905442E-01
C85 2.348667599865E-01 1.810964762688E-01 4.109289220732E-01
C86 5.502263841108E-03 1.093304385053E-01 3.642301804006E-01
C87 1.107980358906E-01 3.975050703083E-01 4.659509592810E-01
C88 3.638513475215E-01 -3.917482427136E-01 3.511244905442E-01
C89 4.774160200525E-01 2.624353831728E-01 4.250168929142E-01
C90 -2.624353831728E-01 -4.774160200525E-01 -4.250168929142E-01
C91 -5.502263841108E-03 -1.093304385053E-01 -3.642301804006E-01
H92 -1.493669187287E-01 3.500524178337E-02 -3.620871264925E-01
C93 5.732029457091E-02 1.101923263301E-01 -3.223455844754E-01
H94 -2.965477293354E-01 -3.126447923479E-02 4.763567108915E-01
C95 -4.456873973396E-01 -6.120102819962E-02 -4.334406492426E-01
H96 3.302604380135E-01 -4.803469654774E-01 -3.181644766259E-01
C97 3.409937803217E-01 -3.165480222506E-01 -3.190837013499E-01
C98 1.093304385053E-01 5.502263841108E-03 3.642301804006E-01
H99 -3.500524178337E-02 1.493669187287E-01 3.620871264925E-01
C100 -1.101923263301E-01 -5.732029457091E-02 3.223455844754E-01
H101 3.126447923479E-02 2.965477293354E-01 -4.763567108915E-01
C102 6.120102819962E-02 4.456873973396E-01 4.334406492426E-01
H103 4.803469654774E-01 -3.302604380135E-01 3.181644766259E-01
C104 3.165480222506E-01 -3.409937803217E-01 3.190837013499E-01
C105 3.975050703083E-01 1.107980358906E-01 4.659509592810E-01
C106 -3.917482427136E-01 3.638513475215E-01 3.511244905442E-01
C107 -1.107980358906E-01 -3.975050703083E-01 -4.659509592810E-01
C108 -3.638513475215E-01 3.917482427136E-01 -3.511244905442E-01
H109 3.500524178337E-02 -1.493669187287E-01 -3.620871264925E-01
C110 1.101923263301E-01 5.732029457091E-02 -3.223455844754E-01
H111 1.488403969387E-01 2.412267652336E-01 -2.871085926840E-01
H112 -3.807664240960E-01 5.824566378640E-02 -4.651739269115E-01
C113 4.226677957886E-01 -1.643118229211E-01 -3.600623070063E-01
H114 2.381601712224E-01 -3.985150954070E-01 -2.619562181533E-01
H115 1.493669187287E-01 -3.500524178337E-02 3.620871264925E-01
C116 -5.732029457091E-02 -1.101923263301E-01 3.223455844754E-01
H117 -2.412267652336E-01 -1.488403969387E-01 2.871085926840E-01
H118 -5.824566378640E-02 3.807664240960E-01 4.651739269115E-01
C119 1.643118229211E-01 -4.226677957886E-01 3.600623070063E-01
H120 3.985150954070E-01 -2.381601712224E-01 2.619562181533E-01
H121 2.965477293354E-01 3.126447923479E-02 -4.763567108915E-01
C122 4.456873973396E-01 6.120102819962E-02 4.334406492426E-01
H123 -3.302604380135E-01 4.803469654774E-01 3.181644766259E-01
C124 -3.409937803217E-01 3.165480222506E-01 3.190837013499E-01
H125 -3.126447923479E-02 -2.965477293354E-01 4.763567108915E-01
C126 -6.120102819962E-02 -4.456873973396E-01 -4.334406492426E-01
H127 -4.803469654774E-01 3.302604380135E-01 -3.181644766259E-01
C128 -3.165480222506E-01 3.409937803217E-01 -3.190837013499E-01
H129 2.412267652336E-01 1.488403969387E-01 -2.871085926840E-01
H130 3.850865605123E-01 -1.253270229293E-01 -3.354074238507E-01
H131 -1.488403969387E-01 -2.412267652336E-01 2.871085926840E-01
H132 1.253270229293E-01 -3.850865605123E-01 3.354074238507E-01
H133 3.807664240960E-01 -5.824566378640E-02 4.651739269115E-01
C134 -4.226677957886E-01 1.643118229211E-01 3.600623070063E-01
H135 -2.381601712224E-01 3.985150954070E-01 2.619562181533E-01
H136 5.824566378640E-02 -3.807664240960E-01 -4.651739269115E-01
C137 -1.643118229211E-01 4.226677957886E-01 -3.600623070063E-01
H138 -3.985150954070E-01 2.381601712224E-01 -2.619562181533E-01
H139 -3.850865605123E-01 1.253270229293E-01 3.354074238507E-01
H140 -1.253270229293E-01 3.850865605123E-01 -3.354074238507E-01


#===END
