###############################################################
#
#primitive cell cif file
#
###############################################################

posm10_data

_symmetry_space_group_name_H-M 'P 1'
_cell_length_a      13.86596031
_cell_length_b      13.86596031
_cell_length_c      14.21100000
_cell_angle_alpha   90.000000
_cell_angle_beta    90.000000
_cell_angle_gamma   150.032293

loop_
_atom_site_label
_atom_site_fract_x
_atom_site_fract_y
_atom_site_fract_z
C1 2.707567042192E-02 -2.774255272011E-02 1.026977343326E-03
C2 -9.103766558626E-02 -1.961021294361E-01 5.149769900549E-02
C3 1.958178398740E-01 8.810999466740E-02 -4.773251633474E-02
C4 -2.707567042192E-02 2.774255272011E-02 -1.026977343326E-03
C5 -2.677262820946E-01 -3.190444570140E-01 8.926531156829E-02
C6 -2.642282083187E-02 -2.398079577500E-01 7.719876085223E-02
C7 3.202162919473E-01 2.640593239450E-01 -8.782914079241E-02
C8 2.421997807255E-01 2.508260505522E-02 -6.934386983836E-02
C9 9.103766558626E-02 1.961021294361E-01 -5.149769900549E-02
C10 -1.958178398740E-01 -8.810999466740E-02 4.773251633474E-02
C11 -3.202162919473E-01 -2.640593239450E-01 8.782914079241E-02
C12 -3.954693507465E-01 -4.956529819062E-01 1.356392562312E-01
C13 -1.031597690745E-01 -3.887087212683E-01 3.501649677130E-02
C14 1.021320415900E-01 -1.402970628341E-01 1.520070938617E-01
C15 2.677262820946E-01 3.190444570140E-01 -8.926531156829E-02
C16 4.959606711034E-01 3.885216071928E-01 -1.338821530695E-01
C17 3.928215146653E-01 1.070355035481E-01 -2.445818816051E-02
C18 1.499046418983E-01 -1.003642436416E-01 -1.445176632070E-01
C19 2.642282083187E-02 2.398079577500E-01 -7.719876085223E-02
C20 -2.421997807255E-01 -2.508260505522E-02 6.934386983836E-02
C21 -4.959606711034E-01 -3.885216071928E-01 1.338821530695E-01
H22 -3.565601403604E-01 4.627664848114E-01 1.384600291659E-01
C23 4.372758022228E-01 3.890796990042E-01 1.763148893483E-01
H24 -2.026576750747E-01 -4.670443222085E-01 -2.326149566596E-02
C25 -5.266449636057E-02 -4.363085145984E-01 6.666473354409E-02
H26 1.614905139238E-01 -2.561760608920E-02 1.857514154745E-01
C27 1.548852276581E-01 -1.858335182573E-01 1.833293459368E-01
C28 3.954693507465E-01 4.956529819062E-01 -1.356392562312E-01
H29 -4.649147983703E-01 3.470629910708E-01 -1.355517307231E-01
C30 -3.863279983021E-01 -4.438966309283E-01 -1.756757866636E-01
H31 4.651643367627E-01 2.037953246264E-01 3.422487834093E-02
C32 4.512428573663E-01 6.708771181190E-02 -5.482073755605E-02
H33 3.397274550520E-02 -1.637360352450E-01 -1.805249861426E-01
C34 2.057666518114E-01 -1.434250292864E-01 -1.742258649445E-01
C35 1.031597690745E-01 3.887087212683E-01 -3.501649677130E-02
C36 -1.021320415900E-01 1.402970628341E-01 -1.520070938617E-01
C37 -3.928215146653E-01 -1.070355035481E-01 2.445818816051E-02
C38 -1.499046418983E-01 1.003642436416E-01 1.445176632070E-01
H39 4.649147983703E-01 -3.470629910708E-01 1.355517307231E-01
C40 3.863279983021E-01 4.438966309283E-01 1.756757866636E-01
H41 3.437407265506E-01 2.568550859786E-01 2.110173426095E-01
H42 -1.145496387348E-01 4.468358067722E-01 3.368060143565E-02
C43 7.752605127308E-02 -3.344288079665E-01 1.406283391852E-01
H44 2.564718180300E-01 -1.048354497768E-01 2.409943879278E-01
H45 3.565601403604E-01 -4.627664848114E-01 -1.384600291659E-01
C46 -4.372758022228E-01 -3.890796990042E-01 -1.763148893483E-01
H47 -2.550032011046E-01 -3.529599670742E-01 -2.102238966786E-01
H48 -4.300972223690E-01 1.338266926892E-01 -2.002986076307E-02
C49 3.579443126225E-01 -5.854894122445E-02 -1.297417524389E-01
H50 1.302293705718E-01 -2.427440496775E-01 -2.322782906281E-01
H51 2.026576750747E-01 4.670443222085E-01 2.326149566596E-02
C52 5.266449636057E-02 4.363085145984E-01 -6.666473354409E-02
H53 -1.614905139238E-01 2.561760608920E-02 -1.857514154745E-01
C54 -1.548852276581E-01 1.858335182573E-01 -1.833293459368E-01
H55 -4.651643367627E-01 -2.037953246264E-01 -3.422487834093E-02
C56 -4.512428573663E-01 -6.708771181190E-02 5.482073755605E-02
H57 -3.397274550520E-02 1.637360352450E-01 1.805249861426E-01
C58 -2.057666518114E-01 1.434250292864E-01 1.742258649445E-01
H59 2.550032011046E-01 3.529599670742E-01 2.102238966786E-01
H60 1.172535642992E-01 -3.715668163812E-01 1.644590430752E-01
H61 -3.437407265506E-01 -2.568550859786E-01 -2.110173426095E-01
H62 4.042620772660E-01 -8.925057489614E-02 -1.530463682029E-01
H63 1.145496387348E-01 -4.468358067722E-01 -3.368060143565E-02
C64 -7.752605127308E-02 3.344288079665E-01 -1.406283391852E-01
H65 -2.564718180300E-01 1.048354497768E-01 -2.409943879278E-01
H66 4.300972223690E-01 -1.338266926892E-01 2.002986076307E-02
C67 -3.579443126225E-01 5.854894122445E-02 1.297417524389E-01
H68 -1.302293705718E-01 2.427440496775E-01 2.322782906281E-01
H69 -1.172535642992E-01 3.715668163812E-01 -1.644590430752E-01
H70 -4.042620772660E-01 8.925057489614E-02 1.530463682029E-01
C71 4.729243295781E-01 -4.722574472799E-01 -4.989730226567E-01
C72 -4.089623344137E-01 -3.038978705639E-01 -4.485023009945E-01
C73 3.041821601260E-01 4.118900053326E-01 4.522674836653E-01
C74 -4.729243295781E-01 4.722574472799E-01 4.989730226567E-01
C75 -2.322737179054E-01 -1.809555429860E-01 -4.107346884317E-01
C76 -4.735771791681E-01 -2.601920422500E-01 -4.228012391478E-01
C77 1.797837080527E-01 2.359406760550E-01 4.121708592076E-01
C78 2.578002192745E-01 4.749173949448E-01 4.306561301616E-01
C79 4.089623344137E-01 3.038978705639E-01 4.485023009945E-01
C80 -3.041821601260E-01 -4.118900053326E-01 -4.522674836653E-01
C81 -1.797837080527E-01 -2.359406760550E-01 -4.121708592076E-01
C82 -1.045306492535E-01 -4.347018093776E-03 -3.643607437688E-01
C83 -3.968402309255E-01 -1.112912787317E-01 -4.649835032287E-01
C84 3.978679584100E-01 -3.597029371659E-01 -3.479929061383E-01
C85 2.322737179054E-01 1.809555429860E-01 4.107346884317E-01
C86 4.039328896565E-03 1.114783928072E-01 3.661178469305E-01
C87 1.071784853347E-01 3.929644964519E-01 4.755418118395E-01
C88 3.500953581017E-01 -3.996357563584E-01 3.554823367930E-01
C89 4.735771791681E-01 2.601920422500E-01 4.228012391478E-01
C90 -2.578002192745E-01 -4.749173949448E-01 -4.306561301616E-01
C91 -4.039328896565E-03 -1.114783928072E-01 -3.661178469305E-01
H92 -1.434398596396E-01 3.723351518860E-02 -3.615399708341E-01
C93 6.272419777719E-02 1.109203009958E-01 -3.236851106517E-01
H94 -2.973423249253E-01 -3.295567779153E-02 4.767385043340E-01
C95 -4.473355036394E-01 -6.369148540157E-02 -4.333352664559E-01
H96 3.385094860762E-01 -4.743823939108E-01 -3.142485845255E-01
C97 3.451147723419E-01 -3.141664817427E-01 -3.166706540632E-01
C98 1.045306492535E-01 4.347018093775E-03 3.643607437688E-01
H99 -3.508520162965E-02 1.529370089292E-01 3.644482692769E-01
C100 -1.136720016979E-01 -5.610336907172E-02 3.243242133364E-01
H101 3.483566323728E-02 2.962046753736E-01 -4.657751216591E-01
C102 4.875714263366E-02 4.329122881881E-01 4.451792624440E-01
H103 4.660272544948E-01 -3.362639647550E-01 3.194750138574E-01
C104 2.942333481886E-01 -3.565749707136E-01 3.257741350555E-01
C105 3.968402309255E-01 1.112912787317E-01 4.649835032287E-01
C106 -3.978679584100E-01 3.597029371659E-01 3.479929061383E-01
C107 -1.071784853347E-01 -3.929644964519E-01 -4.755418118395E-01
C108 -3.500953581017E-01 3.996357563584E-01 -3.554823367930E-01
H109 3.508520162965E-02 -1.529370089292E-01 -3.644482692769E-01
C110 1.136720016979E-01 5.610336907172E-02 -3.243242133364E-01
H111 1.562592734494E-01 2.431449140214E-01 -2.889826573905E-01
H112 -3.854503612652E-01 5.316419322779E-02 -4.663193985644E-01
C113 4.224739487269E-01 -1.655711920335E-01 -3.593716608148E-01
H114 2.435281819700E-01 -3.951645502232E-01 -2.590056120722E-01
H115 1.434398596396E-01 -3.723351518860E-02 3.615399708341E-01
C116 -6.272419777719E-02 -1.109203009958E-01 3.236851106517E-01
H117 -2.449967988954E-01 -1.470400329258E-01 2.897761033214E-01
H118 -6.990277763098E-02 3.661733073108E-01 4.799701392369E-01
C119 1.420556873775E-01 -4.414510587755E-01 3.702582475611E-01
H120 3.697706294282E-01 -2.572559503225E-01 2.677217093719E-01
H121 2.973423249253E-01 3.295567779153E-02 -4.767385043340E-01
C122 4.473355036394E-01 6.369148540157E-02 4.333352664559E-01
H123 -3.385094860762E-01 4.743823939108E-01 3.142485845255E-01
C124 -3.451147723419E-01 3.141664817427E-01 3.166706540632E-01
H125 -3.483566323728E-02 -2.962046753736E-01 4.657751216591E-01
C126 -4.875714263366E-02 -4.329122881881E-01 -4.451792624440E-01
H127 -4.660272544948E-01 3.362639647550E-01 -3.194750138574E-01
C128 -2.942333481886E-01 3.565749707136E-01 -3.257741350555E-01
H129 2.449967988954E-01 1.470400329258E-01 -2.897761033214E-01
H130 3.827464357008E-01 -1.284331836188E-01 -3.355409569248E-01
H131 -1.562592734494E-01 -2.431449140214E-01 2.889826573905E-01
H132 9.573792273398E-02 -4.107494251039E-01 3.469536317971E-01
H133 3.854503612652E-01 -5.316419322779E-02 4.663193985644E-01
C134 -4.224739487269E-01 1.655711920335E-01 3.593716608148E-01
H135 -2.435281819700E-01 3.951645502232E-01 2.590056120722E-01
H136 6.990277763098E-02 -3.661733073108E-01 -4.799701392369E-01
C137 -1.420556873775E-01 4.414510587755E-01 -3.702582475611E-01
H138 -3.697706294282E-01 2.572559503225E-01 -2.677217093719E-01
H139 -3.827464357008E-01 1.284331836188E-01 3.355409569248E-01
H140 -9.573792273398E-02 4.107494251039E-01 -3.469536317971E-01


#===END
