###############################################################
#
#primitive cell cif file
#
###############################################################

posm35_data

_symmetry_space_group_name_H-M 'P 1'
_cell_length_a      13.86596031
_cell_length_b      13.86596031
_cell_length_c      14.21100000
_cell_angle_alpha   90.000000
_cell_angle_beta    90.000000
_cell_angle_gamma   150.032293

loop_
_atom_site_label
_atom_site_fract_x
_atom_site_fract_y
_atom_site_fract_z
C1 2.741337269308E-02 -2.741337269308E-02 0.000000000000E+00
C2 -8.759241890439E-02 -1.939421277252E-01 5.098768842615E-02
C3 1.939421277252E-01 8.759241890439E-02 -5.098768842615E-02
C4 -2.741337269308E-02 2.741337269308E-02 0.000000000000E+00
C5 -2.632132445303E-01 -3.169254683258E-01 9.046747269052E-02
C6 -2.363449110782E-02 -2.388672786495E-01 7.448675770586E-02
C7 3.169254683258E-01 2.632132445303E-01 -9.046747269052E-02
C8 2.388672786495E-01 2.363449110782E-02 -7.448675770586E-02
C9 8.759241890439E-02 1.939421277252E-01 -5.098768842615E-02
C10 -1.939421277252E-01 -8.759241890439E-02 5.098768842615E-02
C11 -3.169254683258E-01 -2.632132445303E-01 9.046747269052E-02
C12 -3.897510865790E-01 -4.935898413730E-01 1.361359680521E-01
C13 -1.005856044087E-01 -3.861789647467E-01 2.932442983900E-02
C14 1.005616566047E-01 -1.459802836418E-01 1.505363283354E-01
C15 2.632132445303E-01 3.169254683258E-01 -9.046747269052E-02
C16 4.935898413730E-01 3.897510865790E-01 -1.361359680521E-01
C17 3.861789647467E-01 1.005856044087E-01 -2.932442983900E-02
C18 1.459802836418E-01 -1.005616566047E-01 -1.505363283354E-01
C19 2.363449110782E-02 2.388672786495E-01 -7.448675770586E-02
C20 -2.388672786495E-01 -2.363449110782E-02 7.448675770586E-02
C21 -4.935898413730E-01 -3.897510865790E-01 1.361359680521E-01
H22 -3.498465819377E-01 4.657557039938E-01 1.379480669676E-01
C23 4.419428961571E-01 3.890562643872E-01 1.765721911038E-01
H24 -1.970275466544E-01 -4.595990855740E-01 -2.979064861340E-02
C25 -5.533887970727E-02 -4.394037301181E-01 5.956013408873E-02
H26 1.600781930848E-01 -3.257927131579E-02 1.866720627411E-01
C27 1.483099940689E-01 -1.970884981054E-01 1.803822652644E-01
C28 3.897510865790E-01 4.935898413730E-01 -1.361359680521E-01
H29 -4.657557039938E-01 3.498465819377E-01 -1.379480669676E-01
C30 -3.890562643872E-01 -4.419428961571E-01 -1.765721911038E-01
H31 4.595990855740E-01 1.970275466544E-01 2.979064861340E-02
C32 4.394037301181E-01 5.533887970727E-02 -5.956013408873E-02
H33 3.257927131579E-02 -1.600781930848E-01 -1.866720627411E-01
C34 1.970884981054E-01 -1.483099940689E-01 -1.803822652644E-01
C35 1.005856044087E-01 3.861789647467E-01 -2.932442983900E-02
C36 -1.005616566047E-01 1.459802836418E-01 -1.505363283354E-01
C37 -3.861789647467E-01 -1.005856044087E-01 2.932442983900E-02
C38 -1.459802836418E-01 1.005616566047E-01 1.505363283354E-01
H39 4.657557039938E-01 -3.498465819377E-01 1.379480669676E-01
C40 3.890562643872E-01 4.419428961571E-01 1.765721911038E-01
H41 3.485489659352E-01 2.561419217254E-01 2.102423125584E-01
H42 -1.183119428855E-01 4.443683706057E-01 2.446173265942E-02
C43 6.993553395532E-02 -3.447483080803E-01 1.349763068438E-01
H44 2.467257599015E-01 -1.210691902954E-01 2.390258111575E-01
H45 3.498465819377E-01 -4.657557039938E-01 -1.379480669676E-01
C46 -4.419428961571E-01 -3.890562643872E-01 -1.765721911038E-01
H47 -2.561419217254E-01 -3.485489659352E-01 -2.102423125584E-01
H48 -4.443683706057E-01 1.183119428855E-01 -2.446173265942E-02
C49 3.447483080803E-01 -6.993553395532E-02 -1.349763068438E-01
H50 1.210691902954E-01 -2.467257599015E-01 -2.390258111575E-01
H51 1.970275466544E-01 4.595990855740E-01 2.979064861340E-02
C52 5.533887970727E-02 4.394037301181E-01 -5.956013408873E-02
H53 -1.600781930848E-01 3.257927131579E-02 -1.866720627411E-01
C54 -1.483099940689E-01 1.970884981054E-01 -1.803822652644E-01
H55 -4.595990855740E-01 -1.970275466544E-01 -2.979064861340E-02
C56 -4.394037301181E-01 -5.533887970727E-02 5.956013408873E-02
H57 -3.257927131579E-02 1.600781930848E-01 1.866720627411E-01
C58 -1.970884981054E-01 1.483099940689E-01 1.803822652644E-01
H59 2.561419217254E-01 3.485489659352E-01 2.102423125584E-01
H60 1.048632087074E-01 -3.869463244179E-01 1.580164060647E-01
H61 -3.485489659352E-01 -2.561419217254E-01 -2.102423125584E-01
H62 3.869463244179E-01 -1.048632087074E-01 -1.580164060647E-01
H63 1.183119428855E-01 -4.443683706057E-01 -2.446173265942E-02
C64 -6.993553395532E-02 3.447483080803E-01 -1.349763068438E-01
H65 -2.467257599015E-01 1.210691902954E-01 -2.390258111575E-01
H66 4.443683706057E-01 -1.183119428855E-01 2.446173265942E-02
C67 -3.447483080803E-01 6.993553395532E-02 1.349763068438E-01
H68 -1.210691902954E-01 2.467257599015E-01 2.390258111575E-01
H69 -1.048632087074E-01 3.869463244179E-01 -1.580164060647E-01
H70 -3.869463244179E-01 1.048632087074E-01 1.580164060647E-01
C71 4.725866273069E-01 -4.725866273069E-01 -5.000000000000E-01
C72 -4.124075810956E-01 -3.060578722748E-01 -4.490123115739E-01
C73 3.060578722748E-01 4.124075810956E-01 4.490123115739E-01
C74 -4.725866273069E-01 4.725866273069E-01 -5.000000000000E-01
C75 -2.367867554697E-01 -1.830745316742E-01 -4.095325273095E-01
C76 -4.763655088922E-01 -2.611327213505E-01 -4.255132422941E-01
C77 1.830745316742E-01 2.367867554697E-01 4.095325273095E-01
C78 2.611327213505E-01 4.763655088922E-01 4.255132422941E-01
C79 4.124075810956E-01 3.060578722748E-01 4.490123115739E-01
C80 -3.060578722748E-01 -4.124075810956E-01 -4.490123115739E-01
C81 -1.830745316742E-01 -2.367867554697E-01 -4.095325273095E-01
C82 -1.102489134210E-01 -6.410158626998E-03 -3.638640319479E-01
C83 -3.994143955913E-01 -1.138210352533E-01 -4.706755701610E-01
C84 3.994383433953E-01 -3.540197163582E-01 -3.494636716646E-01
C85 2.367867554697E-01 1.830745316742E-01 4.095325273095E-01
C86 6.410158626997E-03 1.102489134210E-01 3.638640319479E-01
C87 1.138210352533E-01 3.994143955913E-01 4.706755701610E-01
C88 3.540197163582E-01 -3.994383433953E-01 3.494636716646E-01
C89 4.763655088922E-01 2.611327213505E-01 4.255132422941E-01
C90 -2.611327213505E-01 -4.763655088922E-01 -4.255132422941E-01
C91 -6.410158626997E-03 -1.102489134210E-01 -3.638640319479E-01
H92 -1.501534180623E-01 3.424429600620E-02 -3.620519330324E-01
C93 5.805710384294E-02 1.109437356128E-01 -3.234278088962E-01
H94 -3.029724533456E-01 -4.040091442596E-02 4.702093513866E-01
C95 -4.446611202927E-01 -6.059626988189E-02 -4.404398659113E-01
H96 3.399218069152E-01 -4.674207286842E-01 -3.133279372589E-01
C97 3.516900059311E-01 -3.029115018946E-01 -3.196177347356E-01
C98 1.102489134210E-01 6.410158626998E-03 3.638640319479E-01
H99 -3.424429600620E-02 1.501534180623E-01 3.620519330324E-01
C100 -1.109437356128E-01 -5.805710384294E-02 3.234278088962E-01
H101 4.040091442596E-02 3.029724533456E-01 -4.702093513866E-01
C102 6.059626988189E-02 4.446611202927E-01 4.404398659113E-01
H103 4.674207286842E-01 -3.399218069152E-01 3.133279372589E-01
C104 3.029115018946E-01 -3.516900059311E-01 3.196177347356E-01
C105 3.994143955913E-01 1.138210352533E-01 4.706755701610E-01
C106 -3.994383433953E-01 3.540197163582E-01 3.494636716646E-01
C107 -1.138210352533E-01 -3.994143955913E-01 -4.706755701610E-01
C108 -3.540197163582E-01 3.994383433953E-01 -3.494636716646E-01
H109 3.424429600620E-02 -1.501534180623E-01 -3.620519330324E-01
C110 1.109437356128E-01 5.805710384294E-02 -3.234278088962E-01
H111 1.514510340648E-01 2.438580782746E-01 -2.897576874416E-01
H112 -3.816880571145E-01 5.563162939432E-02 -4.755382673406E-01
C113 4.300644660447E-01 -1.552516919197E-01 -3.650236931562E-01
H114 2.532742400985E-01 -3.789308097046E-01 -2.609741888425E-01
H115 1.501534180623E-01 -3.424429600620E-02 3.620519330324E-01
C116 -5.805710384294E-02 -1.109437356128E-01 3.234278088962E-01
H117 -2.438580782746E-01 -1.514510340648E-01 2.897576874416E-01
H118 -5.563162939432E-02 3.816880571145E-01 4.755382673406E-01
C119 1.552516919197E-01 -4.300644660447E-01 3.650236931562E-01
H120 3.789308097046E-01 -2.532742400985E-01 2.609741888425E-01
H121 3.029724533456E-01 4.040091442596E-02 -4.702093513866E-01
C122 4.446611202927E-01 6.059626988189E-02 4.404398659113E-01
H123 -3.399218069152E-01 4.674207286842E-01 3.133279372589E-01
C124 -3.516900059311E-01 3.029115018946E-01 3.196177347356E-01
H125 -4.040091442596E-02 -3.029724533456E-01 4.702093513866E-01
C126 -6.059626988189E-02 -4.446611202927E-01 -4.404398659113E-01
H127 -4.674207286842E-01 3.399218069152E-01 -3.133279372589E-01
C128 -3.029115018946E-01 3.516900059311E-01 -3.196177347356E-01
H129 2.438580782746E-01 1.514510340648E-01 -2.897576874416E-01
H130 3.951367912926E-01 -1.130536755821E-01 -3.419835939353E-01
H131 -1.514510340648E-01 -2.438580782746E-01 2.897576874416E-01
H132 1.130536755821E-01 -3.951367912926E-01 3.419835939353E-01
H133 3.816880571145E-01 -5.563162939432E-02 4.755382673406E-01
C134 -4.300644660447E-01 1.552516919197E-01 3.650236931562E-01
H135 -2.532742400985E-01 3.789308097046E-01 2.609741888425E-01
H136 5.563162939432E-02 -3.816880571145E-01 -4.755382673406E-01
C137 -1.552516919197E-01 4.300644660447E-01 -3.650236931562E-01
H138 -3.789308097046E-01 2.532742400985E-01 -2.609741888425E-01
H139 -3.951367912926E-01 1.130536755821E-01 3.419835939353E-01
H140 -1.130536755821E-01 3.951367912926E-01 -3.419835939353E-01


#===END
