###############################################################
#
#primitive cell cif file
#
###############################################################

posm26_data

_symmetry_space_group_name_H-M 'P 1'
_cell_length_a      13.86596031
_cell_length_b      13.86596031
_cell_length_c      14.21100000
_cell_angle_alpha   90.000000
_cell_angle_beta    90.000000
_cell_angle_gamma   150.032293

loop_
_atom_site_label
_atom_site_fract_x
_atom_site_fract_y
_atom_site_fract_z
C1 2.741235126451E-02 -2.741235126451E-02 0.000000000000E+00
C2 -8.876170755596E-02 -1.951748345249E-01 5.024716925783E-02
C3 1.951748345249E-01 8.876170755596E-02 -5.024716925783E-02
C4 -2.741235126451E-02 2.741235126451E-02 0.000000000000E+00
C5 -2.651237980959E-01 -3.188664994692E-01 8.913280054458E-02
C6 -2.458447883861E-02 -2.399809490615E-01 7.335757374907E-02
C7 3.188664994692E-01 2.651237980959E-01 -8.913280054458E-02
C8 2.399809490615E-01 2.458447883861E-02 -7.335757374907E-02
C9 8.876170755596E-02 1.951748345249E-01 -5.024716925783E-02
C10 -1.951748345249E-01 -8.876170755596E-02 5.024716925783E-02
C11 -3.188664994692E-01 -2.651237980959E-01 8.913280054458E-02
C12 -3.917151127355E-01 -4.955054148899E-01 1.349442460331E-01
C13 -1.066017120615E-01 -3.916010600763E-01 3.016727677510E-02
C14 1.069829850829E-01 -1.409932874093E-01 1.463455863892E-01
C15 2.651237980959E-01 3.188664994692E-01 -8.913280054458E-02
C16 4.955054148899E-01 3.917151127355E-01 -1.349442460331E-01
C17 3.916010600763E-01 1.066017120615E-01 -3.016727677510E-02
C18 1.409932874093E-01 -1.069829850829E-01 -1.463455863892E-01
C19 2.458447883861E-02 2.399809490615E-01 -7.335757374907E-02
C20 -2.399809490615E-01 -2.458447883861E-02 7.335757374907E-02
C21 -4.955054148899E-01 -3.917151127355E-01 1.349442460331E-01
H22 -3.513204372604E-01 4.643608628769E-01 1.373548062327E-01
C23 4.399640256246E-01 3.870978511977E-01 1.753890605611E-01
H24 -2.081112500580E-01 -4.691573437805E-01 -2.683687122497E-02
C25 -5.899894091652E-02 -4.429198291800E-01 5.920079947808E-02
H26 1.704312747672E-01 -2.436934597975E-02 1.812119587641E-01
C27 1.574878475053E-01 -1.898513297070E-01 1.748006143906E-01
C28 3.917151127355E-01 4.955054148899E-01 -1.349442460331E-01
H29 -4.643608628769E-01 3.513204372604E-01 -1.373548062327E-01
C30 -3.870978511977E-01 -4.399640256246E-01 -1.753890605611E-01
H31 4.691573437805E-01 2.081112500580E-01 2.683687122497E-02
C32 4.429198291800E-01 5.899894091652E-02 -5.920079947808E-02
H33 2.436934597975E-02 -1.704312747672E-01 -1.812119587641E-01
C34 1.898513297070E-01 -1.574878475053E-01 -1.748006143906E-01
C35 1.066017120615E-01 3.916010600763E-01 -3.016727677510E-02
C36 -1.069829850829E-01 1.409932874093E-01 -1.463455863892E-01
C37 -3.916010600763E-01 -1.066017120615E-01 3.016727677510E-02
C38 -1.409932874093E-01 1.069829850829E-01 1.463455863892E-01
H39 4.643608628769E-01 -3.513204372604E-01 1.373548062327E-01
C40 3.870978511977E-01 4.399640256246E-01 1.753890605611E-01
H41 3.470088244879E-01 2.547021999997E-01 2.095354937573E-01
H42 -1.251376584191E-01 4.381664498969E-01 2.542031040032E-02
C43 7.410985676009E-02 -3.416955616337E-01 1.313476478613E-01
H44 2.613295723492E-01 -1.093520101601E-01 2.311039144696E-01
H45 3.513204372604E-01 -4.643608628769E-01 -1.373548062327E-01
C46 -4.399640256246E-01 -3.870978511977E-01 -1.753890605611E-01
H47 -2.547021999997E-01 -3.470088244879E-01 -2.095354937573E-01
H48 -4.381664498969E-01 1.251376584191E-01 -2.542031040032E-02
C49 3.416955616337E-01 -7.410985676009E-02 -1.313476478613E-01
H50 1.093520101601E-01 -2.613295723492E-01 -2.311039144696E-01
H51 2.081112500580E-01 4.691573437805E-01 2.683687122497E-02
C52 5.899894091652E-02 4.429198291800E-01 -5.920079947808E-02
H53 -1.704312747672E-01 2.436934597975E-02 -1.812119587641E-01
C54 -1.574878475053E-01 1.898513297070E-01 -1.748006143906E-01
H55 -4.691573437805E-01 -2.081112500580E-01 -2.683687122497E-02
C56 -4.429198291800E-01 -5.899894091652E-02 5.920079947808E-02
H57 -2.436934597975E-02 1.704312747672E-01 1.812119587641E-01
C58 -1.898513297070E-01 1.574878475053E-01 1.748006143906E-01
H59 2.547021999997E-01 3.470088244879E-01 2.095354937573E-01
H60 1.114695535273E-01 -3.818452569747E-01 1.533526191474E-01
H61 -3.470088244879E-01 -2.547021999997E-01 -2.095354937573E-01
H62 3.818452569747E-01 -1.114695535273E-01 -1.533526191474E-01
H63 1.251376584191E-01 -4.381664498969E-01 -2.542031040032E-02
C64 -7.410985676009E-02 3.416955616337E-01 -1.313476478613E-01
H65 -2.613295723492E-01 1.093520101601E-01 -2.311039144696E-01
H66 4.381664498969E-01 -1.251376584191E-01 2.542031040032E-02
C67 -3.416955616337E-01 7.410985676009E-02 1.313476478613E-01
H68 -1.093520101601E-01 2.613295723492E-01 2.311039144696E-01
H69 -1.114695535273E-01 3.818452569747E-01 -1.533526191474E-01
H70 -3.818452569747E-01 1.114695535273E-01 1.533526191474E-01
C71 4.725941281225E-01 -4.725941281225E-01 -5.000000000000E-01
C72 -4.096140473023E-01 -3.032548652149E-01 -4.510169539176E-01
C73 3.032548652149E-01 4.096140473023E-01 4.510169539176E-01
C74 -4.725941281225E-01 4.725941281225E-01 -5.000000000000E-01
C75 -2.333381920563E-01 -1.796057505080E-01 -4.120383481839E-01
C76 -4.730790529515E-01 -2.579732105860E-01 -4.268149430585E-01
C77 1.796057505080E-01 2.333381920563E-01 4.120383481839E-01
C78 2.579732105860E-01 4.730790529515E-01 4.268149430585E-01
C79 4.096140473023E-01 3.032548652149E-01 4.510169539176E-01
C80 -3.032548652149E-01 -4.096140473023E-01 -4.510169539176E-01
C81 -1.796057505080E-01 -2.333381920563E-01 -4.120383481839E-01
C82 -1.077241547962E-01 -3.891761880266E-03 -3.654228367325E-01
C83 -3.964064394388E-01 -1.100708241428E-01 -4.706925918433E-01
C84 4.044866998513E-01 -3.507915826769E-01 -3.498208293205E-01
C85 2.333381920563E-01 1.796057505080E-01 4.120383481839E-01
C86 3.891761880266E-03 1.077241547962E-01 3.654228367325E-01
C87 1.100708241428E-01 3.964064394388E-01 4.706925918433E-01
C88 3.507915826769E-01 -4.044866998513E-01 3.498208293205E-01
C89 4.730790529515E-01 2.579732105860E-01 4.268149430585E-01
C90 -2.579732105860E-01 -4.730790529515E-01 -4.268149430585E-01
C91 -3.891761880266E-03 -1.077241547962E-01 -3.654228367325E-01
H92 -1.476973058293E-01 3.667957969513E-02 -3.633430463437E-01
C93 5.879159247355E-02 1.116901538913E-01 -3.233983845492E-01
H94 -3.016582503570E-01 -3.694868480926E-02 4.693504972181E-01
C95 -4.392467327441E-01 -5.536845721522E-02 -4.377153283779E-01
H96 3.452047255985E-01 -4.647789943853E-01 -3.149355571470E-01
C97 3.591775905608E-01 -2.982511596384E-01 -3.172454035093E-01
C98 1.077241547962E-01 3.891761880266E-03 3.654228367325E-01
H99 -3.667957969513E-02 1.476973058293E-01 3.633430463437E-01
C100 -1.116901538913E-01 -5.879159247355E-02 3.233983845492E-01
H101 3.694868480926E-02 3.016582503570E-01 -4.693504972181E-01
C102 5.536845721522E-02 4.392467327441E-01 4.377153283779E-01
H103 4.647789943853E-01 -3.452047255985E-01 3.149355571470E-01
C104 2.982511596384E-01 -3.591775905608E-01 3.172454035093E-01
C105 3.964064394388E-01 1.100708241428E-01 4.706925918433E-01
C106 -4.044866998513E-01 3.507915826769E-01 3.498208293205E-01
C107 -1.100708241428E-01 -3.964064394388E-01 -4.706925918433E-01
C108 -3.507915826769E-01 4.044866998513E-01 -3.498208293205E-01
H109 3.667957969513E-02 -1.476973058293E-01 -3.633430463437E-01
C110 1.116901538913E-01 5.879159247355E-02 -3.233983845492E-01
H111 1.503081308632E-01 2.428439129164E-01 -2.882942544693E-01
H112 -3.767613269950E-01 6.123342075569E-02 -4.717098482016E-01
C113 4.380348642626E-01 -1.493224410447E-01 -3.609775562372E-01
H114 2.621137046416E-01 -3.742871898115E-01 -2.578312359137E-01
H115 1.476973058293E-01 -3.667957969513E-02 3.633430463437E-01
C116 -5.879159247355E-02 -1.116901538913E-01 3.233983845492E-01
H117 -2.428439129164E-01 -1.503081308632E-01 2.882942544693E-01
H118 -6.123342075569E-02 3.767613269950E-01 4.717098482016E-01
C119 1.493224410447E-01 -4.380348642626E-01 3.609775562372E-01
H120 3.742871898115E-01 -2.621137046416E-01 2.578312359137E-01
H121 3.016582503570E-01 3.694868480926E-02 -4.693504972181E-01
C122 4.392467327441E-01 5.536845721522E-02 4.377153283779E-01
H123 -3.452047255985E-01 4.647789943853E-01 3.149355571470E-01
C124 -3.591775905608E-01 2.982511596384E-01 3.172454035093E-01
H125 -3.694868480926E-02 -3.016582503570E-01 4.693504972181E-01
C126 -5.536845721522E-02 -4.392467327441E-01 -4.377153283779E-01
H127 -4.647789943853E-01 3.452047255985E-01 -3.149355571470E-01
C128 -2.982511596384E-01 3.591775905608E-01 -3.172454035093E-01
H129 2.428439129164E-01 1.503081308632E-01 -2.882942544693E-01
H130 4.049654143319E-01 -1.060163633274E-01 -3.358472078693E-01
H131 -1.503081308632E-01 -2.428439129164E-01 2.882942544693E-01
H132 1.060163633274E-01 -4.049654143319E-01 3.358472078693E-01
H133 3.767613269950E-01 -6.123342075569E-02 4.717098482016E-01
C134 -4.380348642626E-01 1.493224410447E-01 3.609775562372E-01
H135 -2.621137046416E-01 3.742871898115E-01 2.578312359137E-01
H136 6.123342075569E-02 -3.767613269950E-01 -4.717098482016E-01
C137 -1.493224410447E-01 4.380348642626E-01 -3.609775562372E-01
H138 -3.742871898115E-01 2.621137046416E-01 -2.578312359137E-01
H139 -4.049654143319E-01 1.060163633274E-01 3.358472078693E-01
H140 -1.060163633274E-01 4.049654143319E-01 -3.358472078693E-01


#===END
