###############################################################
#
#primitive cell cif file
#
###############################################################

posm47_data

_symmetry_space_group_name_H-M 'P 1'
_cell_length_a      13.86596031
_cell_length_b      13.86596031
_cell_length_c      14.21100000
_cell_angle_alpha   90.000000
_cell_angle_beta    90.000000
_cell_angle_gamma   150.032293

loop_
_atom_site_label
_atom_site_fract_x
_atom_site_fract_y
_atom_site_fract_z
C1 2.799089144731E-02 -2.682733169473E-02 2.945031316586E-04
C2 -8.973693649509E-02 -1.952372615738E-01 5.012809978784E-02
C3 1.966827077363E-01 8.941072375858E-02 -4.910211555239E-02
C4 -2.682733169473E-02 2.799089144731E-02 2.945031316586E-04
C5 -2.666075395321E-01 -3.201871047042E-01 8.894485053001E-02
C6 -2.578554329231E-02 -2.394907987875E-01 7.369329342523E-02
C7 3.190736442570E-01 2.651780665075E-01 -8.814960183069E-02
C8 2.425169396881E-01 2.571988259478E-02 -7.284933726536E-02
C9 8.941072375858E-02 1.966827077363E-01 -4.910211555239E-02
C10 -1.952372615738E-01 -8.973693649509E-02 5.012809978784E-02
C11 -3.201871047042E-01 -2.666075395321E-01 8.894485053001E-02
C12 -3.926684309775E-01 -4.965126765562E-01 1.349603214665E-01
C13 -1.058777219691E-01 -3.891985925701E-01 2.960932289909E-02
C14 1.010773423004E-01 -1.437032876117E-01 1.486100333629E-01
C15 2.651780665075E-01 3.190736442570E-01 -8.814960183069E-02
C16 4.951009764535E-01 3.913225269618E-01 -1.345610878342E-01
C17 3.923316433635E-01 1.043175506535E-01 -2.986536203272E-02
C18 1.464984171206E-01 -1.014189429312E-01 -1.479147237059E-01
C19 2.571988259478E-02 2.425169396881E-01 -7.284933726536E-02
C20 -2.394907987875E-01 -2.578554329231E-02 7.369329342523E-02
C21 -4.965126765562E-01 -3.926684309775E-01 1.349603214665E-01
H22 -3.524705202255E-01 4.631566113658E-01 1.372935944233E-01
C23 4.395380052207E-01 3.866535202610E-01 1.758780531873E-01
H24 -2.039916848572E-01 -4.637209214042E-01 -2.874034162705E-02
C25 -6.104495110499E-02 -4.426343242250E-01 6.003969838808E-02
H26 1.623441463163E-01 -2.857192936675E-02 1.836321789109E-01
C27 1.484318049091E-01 -1.950319058139E-01 1.786184209189E-01
C28 3.913225269618E-01 4.951009764535E-01 -1.345610878342E-01
H29 -4.645246718160E-01 3.511526112056E-01 -1.367181654656E-01
C30 -3.887541770453E-01 -4.416344279304E-01 -1.761126228246E-01
H31 4.684877375670E-01 2.024613148438E-01 2.874603237985E-02
C32 4.449170477398E-01 5.870725706748E-02 -6.144577271205E-02
H33 3.101842222766E-02 -1.628824028525E-01 -1.826442227061E-01
C34 1.965682642547E-01 -1.498784520355E-01 -1.789367899624E-01
C35 1.043175506535E-01 3.923316433635E-01 -2.986536203272E-02
C36 -1.014189429312E-01 1.464984171206E-01 -1.479147237059E-01
C37 -3.891985925701E-01 -1.058777219691E-01 2.960932289909E-02
C38 -1.437032876117E-01 1.010773423004E-01 1.486100333629E-01
H39 4.631566113658E-01 -3.524705202255E-01 1.372935944233E-01
C40 3.866535202610E-01 4.395380052207E-01 1.758780531873E-01
H41 3.471049950927E-01 2.547097427712E-01 2.103609397400E-01
H42 -1.253671471692E-01 4.397695192417E-01 2.589083197199E-02
C43 6.689309850362E-02 -3.453374829990E-01 1.344190996632E-01
H44 2.487682555282E-01 -1.174825265196E-01 2.364330680544E-01
H45 3.511526112056E-01 -4.645246718160E-01 -1.367181654656E-01
C46 -4.416344279304E-01 -3.887541770453E-01 -1.761126228246E-01
H47 -2.571485443121E-01 -3.495956985320E-01 -2.108802995480E-01
H48 -4.371635098995E-01 1.230091842549E-01 -2.781963022673E-02
C49 3.470356375900E-01 -6.918189399392E-02 -1.359509919609E-01
H50 1.175822938290E-01 -2.504476121794E-01 -2.368396105015E-01
H51 2.024613148438E-01 4.684877375670E-01 2.874603237985E-02
C52 5.870725706748E-02 4.449170477398E-01 -6.144577271205E-02
H53 -1.628824028525E-01 3.101842222766E-02 -1.826442227061E-01
C54 -1.498784520355E-01 1.965682642547E-01 -1.789367899624E-01
H55 -4.637209214042E-01 -2.039916848572E-01 -2.874034162705E-02
C56 -4.426343242250E-01 -6.104495110499E-02 6.003969838808E-02
H57 -2.857192936675E-02 1.623441463163E-01 1.836321789109E-01
C58 -1.950319058139E-01 1.484318049091E-01 1.786184209189E-01
H59 2.547097427712E-01 3.471049950927E-01 2.103609397400E-01
H60 1.019008191533E-01 -3.874010760147E-01 1.575661150756E-01
H61 -3.495956985320E-01 -2.571485443121E-01 -2.108802995480E-01
H62 3.884278176325E-01 -1.046033200420E-01 -1.599392962024E-01
H63 1.230091842549E-01 -4.371635098995E-01 -2.781963022673E-02
C64 -6.918189399392E-02 3.470356375900E-01 -1.359509919609E-01
H65 -2.504476121794E-01 1.175822938290E-01 -2.368396105015E-01
H66 4.397695192417E-01 -1.253671471692E-01 2.589083197199E-02
C67 -3.453374829990E-01 6.689309850362E-02 1.344190996632E-01
H68 -1.174825265196E-01 2.487682555282E-01 2.364330680544E-01
H69 -1.046033200420E-01 3.884278176325E-01 -1.599392962024E-01
H70 -3.874010760147E-01 1.019008191533E-01 1.575661150756E-01
C71 4.720091085527E-01 -4.731726683053E-01 -4.997054968683E-01
C72 -4.102630635049E-01 -3.047627384262E-01 -4.498719002122E-01
C73 3.033172922637E-01 4.105892762414E-01 4.508978844476E-01
C74 -4.731726683053E-01 4.720091085527E-01 -4.997054968683E-01
C75 -2.333924604679E-01 -1.798128952958E-01 -4.110551494700E-01
C76 -4.742144567077E-01 -2.605092012125E-01 -4.263067065748E-01
C77 1.809263557430E-01 2.348219334925E-01 4.118503981693E-01
C78 2.574830603119E-01 4.742801174052E-01 4.271506627346E-01
C79 4.105892762414E-01 3.033172922637E-01 4.508978844476E-01
C80 -3.047627384262E-01 -4.102630635049E-01 -4.498719002122E-01
C81 -1.798128952958E-01 -2.333924604679E-01 -4.110551494700E-01
C82 -1.073315690225E-01 -3.487323443840E-03 -3.650396785335E-01
C83 -3.941222780309E-01 -1.108014074299E-01 -4.703906771009E-01
C84 3.989226576996E-01 -3.562967123883E-01 -3.513899666371E-01
C85 2.348219334925E-01 1.809263557430E-01 4.118503981693E-01
C86 4.899023546500E-03 1.086774730382E-01 3.654389121658E-01
C87 1.076683566365E-01 3.956824493465E-01 4.701346379673E-01
C88 3.535015828794E-01 -3.985810570688E-01 3.520852762941E-01
C89 4.742801174052E-01 2.574830603119E-01 4.271506627346E-01
C90 -2.605092012125E-01 -4.742144567077E-01 -4.263067065748E-01
C91 -3.487323443840E-03 -1.073315690225E-01 -3.650396785335E-01
H92 -1.475294797745E-01 3.684338863422E-02 -3.627064055767E-01
C93 6.046199477931E-02 1.133464797390E-01 -3.241219468127E-01
H94 -2.960083151428E-01 -3.627907859585E-02 4.712596583730E-01
C95 -4.389550488950E-01 -5.736567577500E-02 -4.399603016119E-01
H96 3.376558536837E-01 -4.714280706333E-01 -3.163678210891E-01
C97 3.515681950909E-01 -3.049680941861E-01 -3.213815790811E-01
C98 1.086774730382E-01 4.899023546501E-03 3.654389121658E-01
H99 -3.547532818403E-02 1.488473887944E-01 3.632818345344E-01
C100 -1.112458229547E-01 -5.836557206960E-02 3.238873771754E-01
H101 3.151226243296E-02 2.975386851562E-01 -4.712539676202E-01
C102 5.508295226023E-02 4.412927429325E-01 4.385542272879E-01
H103 4.689815777723E-01 -3.371175971475E-01 3.173557772939E-01
C104 3.034317357453E-01 -3.501215479645E-01 3.210632100376E-01
C105 3.956824493465E-01 1.076683566365E-01 4.701346379673E-01
C106 -3.985810570688E-01 3.535015828794E-01 3.520852762941E-01
C107 -1.108014074299E-01 -3.941222780309E-01 -4.703906771009E-01
C108 -3.562967123883E-01 3.989226576996E-01 -3.513899666371E-01
H109 3.684338863422E-02 -1.475294797745E-01 -3.627064055767E-01
C110 1.133464797390E-01 6.046199477931E-02 -3.241219468127E-01
H111 1.528950049073E-01 2.452902572288E-01 -2.896390602600E-01
H112 -3.746328528308E-01 6.023048075828E-02 -4.741091680280E-01
C113 4.331069014964E-01 -1.546625170010E-01 -3.655809003368E-01
H114 2.512317444718E-01 -3.825174734804E-01 -2.635669319456E-01
H115 1.488473887944E-01 -3.547532818403E-02 3.632818345344E-01
C116 -5.836557206960E-02 -1.112458229547E-01 3.238873771754E-01
H117 -2.428514556879E-01 -1.504043014680E-01 2.891197004520E-01
H118 -6.283649010049E-02 3.769908157451E-01 4.721803697733E-01
C119 1.529643624100E-01 -4.308181060061E-01 3.640490080391E-01
H120 3.824177061710E-01 -2.495523878206E-01 2.631603894985E-01
H121 2.975386851562E-01 3.151226243296E-02 -4.712539676202E-01
C122 4.412927429325E-01 5.508295226023E-02 4.385542272879E-01
H123 -3.371175971475E-01 4.689815777723E-01 3.173557772939E-01
C124 -3.501215479645E-01 3.034317357453E-01 3.210632100376E-01
H125 -3.627907859585E-02 -2.960083151428E-01 4.712596583730E-01
C126 -5.736567577500E-02 -4.389550488950E-01 -4.399603016119E-01
H127 -4.714280706333E-01 3.376558536837E-01 -3.163678210891E-01
C128 -3.049680941861E-01 3.515681950909E-01 -3.213815790811E-01
H129 2.452902572288E-01 1.528950049073E-01 -2.896390602600E-01
H130 3.980991808467E-01 -1.125989239853E-01 -3.424338849244E-01
H131 -1.504043014680E-01 -2.428514556879E-01 2.891197004520E-01
H132 1.115721823675E-01 -3.953966799580E-01 3.400607037976E-01
H133 3.769908157451E-01 -6.283649010049E-02 4.721803697733E-01
C134 -4.308181060061E-01 1.529643624100E-01 3.640490080391E-01
H135 -2.495523878206E-01 3.824177061710E-01 2.631603894985E-01
H136 6.023048075828E-02 -3.746328528308E-01 -4.741091680280E-01
C137 -1.546625170010E-01 4.331069014964E-01 -3.655809003368E-01
H138 -3.825174734804E-01 2.512317444718E-01 -2.635669319456E-01
H139 -3.953966799580E-01 1.115721823675E-01 3.400607037976E-01
H140 -1.125989239853E-01 3.980991808467E-01 -3.424338849244E-01


#===END
