###############################################################
#
#primitive cell cif file
#
###############################################################

posm12_data

_symmetry_space_group_name_H-M 'P 1'
_cell_length_a      13.86596031
_cell_length_b      13.86596031
_cell_length_c      14.21100000
_cell_angle_alpha   90.000000
_cell_angle_beta    90.000000
_cell_angle_gamma   150.032293

loop_
_atom_site_label
_atom_site_fract_x
_atom_site_fract_y
_atom_site_fract_z
C1 3.516968104647E-02 -1.964854209556E-02 4.342721186686E-03
C2 -8.258198737333E-02 -1.890540602975E-01 5.329221191802E-02
C3 2.028659090126E-01 9.656567288033E-02 -4.593800342221E-02
C4 -1.964854209556E-02 3.516968104647E-02 4.342721186686E-03
C5 -2.592552072664E-01 -3.129835526293E-01 9.191591234804E-02
C6 -2.245319279587E-02 -2.383930687096E-01 7.499897905439E-02
C7 3.262771963320E-01 2.725303987732E-01 -8.517854001267E-02
C8 2.436146697660E-01 2.905223309121E-02 -7.154365163620E-02
C9 9.656567288033E-02 2.028659090126E-01 -4.593800342221E-02
C10 -1.890540602975E-01 -8.258198737333E-02 5.329221191802E-02
C11 -3.129835526293E-01 -2.592552072664E-01 9.191591234804E-02
C12 -3.868030204566E-01 -4.905906015959E-01 1.369959636691E-01
C13 -1.072892862306E-01 -3.907620257016E-01 2.994933549715E-02
C14 1.038476272415E-01 -1.467638075517E-01 1.496070681200E-01
C15 2.725303987732E-01 3.262771963320E-01 -8.517854001267E-02
C16 -4.989769485862E-01 3.971879374827E-01 -1.325254456316E-01
C17 3.907682102319E-01 1.029059863921E-01 -2.952534943466E-02
C18 1.434378971806E-01 -9.864865799009E-02 -1.469176889488E-01
C19 2.905223309121E-02 2.436146697660E-01 -7.154365163620E-02
C20 -2.383930687096E-01 -2.245319279587E-02 7.499897905439E-02
C21 -4.905906015959E-01 -3.868030204566E-01 1.369959636691E-01
H22 -3.471990125261E-01 4.684958759613E-01 1.390243053044E-01
C23 4.444798084960E-01 3.916037441054E-01 1.770803803004E-01
H24 -2.049921972955E-01 -4.627652228367E-01 -2.821664560692E-02
C25 -6.906270838098E-02 -4.512144556305E-01 5.932588424228E-02
H26 1.701552713951E-01 -2.903003665842E-02 1.856379591594E-01
C27 1.446368696730E-01 -2.051663364663E-01 1.785727133631E-01
C28 3.971879374827E-01 -4.989769485862E-01 -1.325254456316E-01
H29 -4.591854072205E-01 3.564241189050E-01 -1.349874545845E-01
C30 -3.838039532010E-01 -4.366926246551E-01 -1.749102957116E-01
H31 4.694434361345E-01 2.014608024056E-01 2.926972839997E-02
C32 4.363369163343E-01 5.068949979148E-02 -6.215958685786E-02
H33 3.056031493598E-02 -1.550712777736E-01 -1.806384424577E-01
C34 1.864338336023E-01 -1.536733872715E-01 -1.789824975182E-01
C35 1.029059863921E-01 3.907682102319E-01 -2.952534943466E-02
C36 -9.864865799009E-02 1.434378971806E-01 -1.469176889488E-01
C37 -3.907620257016E-01 -1.072892862306E-01 2.994933549715E-02
C38 -1.467638075517E-01 1.038476272415E-01 1.496070681200E-01
H39 4.684958759613E-01 -3.471990125261E-01 1.390243053044E-01
C40 3.916037441054E-01 4.444798084960E-01 1.770803803004E-01
H41 3.507571335373E-01 2.583547684077E-01 2.104957411057E-01
H42 -1.379995107733E-01 4.288680951088E-01 2.434531813166E-02
C43 5.746810148957E-02 -3.585098256717E-01 1.336843419057E-01
H44 2.441685125091E-01 -1.305063413903E-01 2.363711221247E-01
H45 3.564241189050E-01 -4.591854072205E-01 -1.349874545845E-01
C46 -4.366926246551E-01 -3.838039532010E-01 -1.749102957116E-01
H47 -2.535035186755E-01 -3.459435600874E-01 -2.107454981823E-01
H48 -4.480649340324E-01 1.103768206508E-01 -2.936514406706E-02
C49 3.338632949173E-01 -7.860689100796E-02 -1.366857497184E-01
H50 1.045584789583E-01 -2.550473551985E-01 -2.369015564312E-01
H51 2.014608024056E-01 4.694434361345E-01 2.926972839997E-02
C52 5.068949979148E-02 4.363369163343E-01 -6.215958685786E-02
H53 -1.550712777736E-01 3.056031493598E-02 -1.806384424577E-01
C54 -1.536733872715E-01 1.864338336023E-01 -1.789824975182E-01
H55 -4.627652228367E-01 -2.049921972955E-01 -2.821664560692E-02
C56 -4.512144556305E-01 -6.906270838098E-02 5.932588424228E-02
H57 -2.903003665842E-02 1.701552713951E-01 1.856379591594E-01
C58 -2.051663364663E-01 1.446368696730E-01 1.785727133631E-01
H59 2.583547684077E-01 3.507571335373E-01 2.104957411057E-01
H60 8.700365879409E-02 -4.062227898050E-01 1.562248692095E-01
H61 -3.459435600874E-01 -2.535035186755E-01 -2.107454981823E-01
H62 3.696061038423E-01 -1.195004804013E-01 -1.612805420685E-01
H63 1.103768206508E-01 -4.480649340324E-01 -2.936514406706E-02
C64 -7.860689100796E-02 3.338632949173E-01 -1.366857497184E-01
H65 -2.550473551985E-01 1.045584789583E-01 -2.369015564312E-01
H66 4.288680951088E-01 -1.379995107733E-01 2.434531813166E-02
C67 -3.585098256717E-01 5.746810148957E-02 1.336843419057E-01
H68 -1.305063413903E-01 2.441685125091E-01 2.363711221247E-01
H69 -1.195004804013E-01 3.696061038423E-01 -1.612805420685E-01
H70 -4.062227898050E-01 8.700365879409E-02 1.562248692095E-01
C71 4.803514579044E-01 -4.648303189535E-01 4.956572788133E-01
C72 -4.034343271197E-01 -2.971340909874E-01 -4.540619965778E-01
C73 3.109459397025E-01 4.174180126267E-01 4.467077880820E-01
C74 -4.648303189535E-01 4.803514579044E-01 4.956572788133E-01
C75 -2.274696012268E-01 -1.737228036680E-01 -4.148214599873E-01
C76 -4.709477669088E-01 -2.563853302340E-01 -4.284563483638E-01
C77 1.870164473707E-01 2.407447927336E-01 4.080840876520E-01
C78 2.616069312904E-01 4.775468072041E-01 4.250010209456E-01
C79 4.174180126267E-01 3.109459397025E-01 4.467077880820E-01
C80 -2.971340909874E-01 -4.034343271197E-01 -4.540619965778E-01
C81 -1.737228036680E-01 -2.274696012268E-01 -4.148214599873E-01
C82 -1.028120625173E-01 1.023051413802E-03 -3.674745543684E-01
C83 -3.970940136079E-01 -1.092317897681E-01 -4.704746505653E-01
C84 4.013513420099E-01 -3.565621028194E-01 -3.530823110512E-01
C85 2.407447927336E-01 1.870164473707E-01 4.080840876520E-01
C86 9.409398404143E-03 1.131969795434E-01 3.630040363309E-01
C87 1.092379742984E-01 3.927107137694E-01 4.700506645028E-01
C88 3.532361924483E-01 -3.961523727585E-01 3.503929318800E-01
C89 4.775468072041E-01 2.616069312904E-01 4.250010209456E-01
C90 -2.563853302340E-01 -4.709477669088E-01 -4.284563483638E-01
C91 1.023051413802E-03 -1.028120625173E-01 -3.674745543684E-01
H92 -1.435758810950E-01 4.081459277955E-02 -3.650125454155E-01
C93 6.330737534491E-02 1.161960467990E-01 -3.250897042884E-01
H94 -2.985391975944E-01 -3.055656386553E-02 4.707302716000E-01
C95 -4.493105002085E-01 -6.366308366568E-02 -4.378404131421E-01
H96 3.449287222264E-01 -4.694396850640E-01 -3.193615575423E-01
C97 3.463266127285E-01 -3.135661663977E-01 -3.210175024818E-01
C98 1.131969795434E-01 9.409398404143E-03 3.630040363309E-01
H99 -3.150412403871E-02 1.528009874739E-01 3.609756946956E-01
C100 -1.083962558946E-01 -5.552019150400E-02 3.229196196996E-01
H101 3.723477716328E-02 2.950078027045E-01 -4.717833543931E-01
C102 4.878554436955E-02 4.309372916190E-01 4.406741157577E-01
H103 4.709699633416E-01 -3.298447286049E-01 3.143620408406E-01
C104 2.948336635337E-01 -3.553631303270E-01 3.214272866369E-01
C105 3.927107137694E-01 1.092379742984E-01 4.700506645028E-01
C106 -3.961523727585E-01 3.532361924483E-01 3.503929318800E-01
C107 -1.092317897681E-01 -3.970940136079E-01 -4.704746505653E-01
C108 -3.565621028194E-01 4.013513420099E-01 -3.530823110512E-01
H109 4.081459277955E-02 -1.435758810950E-01 -3.650125454155E-01
C110 1.161960467990E-01 6.330737534491E-02 -3.250897042884E-01
H111 1.540564399126E-01 2.464964813245E-01 -2.892545018177E-01
H112 -3.896231793492E-01 5.193506596761E-02 -4.706348559329E-01
C113 4.213931089920E-01 -1.661367050827E-01 -3.633142502816E-01
H114 2.449526448015E-01 -3.954415210417E-01 -2.630984435688E-01
H115 1.528009874739E-01 -3.150412403871E-02 3.609756946956E-01
C116 -5.552019150400E-02 -1.083962558946E-01 3.229196196996E-01
H117 -2.416452315923E-01 -1.492428664627E-01 2.895042588943E-01
H118 -7.113190489116E-02 3.620004892267E-01 4.756546818683E-01
C119 1.414901743283E-01 -4.425318985104E-01 3.663156580943E-01
H120 3.694936586097E-01 -2.558314874909E-01 2.636288778753E-01
H121 2.950078027045E-01 3.723477716328E-02 -4.717833543931E-01
C122 4.309372916190E-01 4.878554436955E-02 4.406741157577E-01
H123 -3.298447286049E-01 4.709699633416E-01 3.143620408406E-01
C124 -3.553631303270E-01 2.948336635337E-01 3.214272866369E-01
H125 -3.055656386553E-02 -2.985391975944E-01 4.707302716000E-01
C126 -6.366308366568E-02 -4.493105002085E-01 -4.378404131421E-01
H127 -4.694396850640E-01 3.449287222264E-01 -3.193615575423E-01
C128 -3.135661663977E-01 3.463266127285E-01 -3.210175024818E-01
H129 2.464964813245E-01 1.540564399126E-01 -2.892545018177E-01
H130 3.804995195987E-01 -1.303938961577E-01 -3.387194579315E-01
H131 -1.492428664627E-01 -2.416452315923E-01 2.895042588943E-01
H132 9.377721019503E-02 -4.129963412059E-01 3.437751307905E-01
H133 3.620004892267E-01 -7.113190489116E-02 4.756546818683E-01
C134 -4.425318985104E-01 1.414901743283E-01 3.663156580943E-01
H135 -2.558314874909E-01 3.694936586097E-01 2.636288778753E-01
H136 5.193506596761E-02 -3.896231793492E-01 -4.706348559329E-01
C137 -1.661367050827E-01 4.213931089920E-01 -3.633142502816E-01
H138 -3.954415210417E-01 2.449526448015E-01 -2.630984435688E-01
H139 -4.129963412059E-01 9.377721019503E-02 3.437751307905E-01
H140 -1.303938961577E-01 3.804995195987E-01 -3.387194579315E-01


#===END
