###############################################################
#
#primitive cell cif file
#
###############################################################

posm20_data

_symmetry_space_group_name_H-M 'P 1'
_cell_length_a      13.86596031
_cell_length_b      13.86596031
_cell_length_c      14.21100000
_cell_angle_alpha   90.000000
_cell_angle_beta    90.000000
_cell_angle_gamma   150.032293

loop_
_atom_site_label
_atom_site_fract_x
_atom_site_fract_y
_atom_site_fract_z
C1 2.741443737601E-02 -2.741443737601E-02 0.000000000000E+00
C2 -9.124215837851E-02 -1.977148592198E-01 4.830191411259E-02
C3 1.977148592198E-01 9.124215837851E-02 -4.830191411259E-02
C4 -2.741443737601E-02 2.741443737601E-02 0.000000000000E+00
C5 -2.692713805621E-01 -3.230428894025E-01 8.559657718873E-02
C6 -2.696078475460E-02 -2.421774569893E-01 7.256588088277E-02
C7 3.230428894025E-01 2.692713805621E-01 -8.559657718873E-02
C8 2.421774569893E-01 2.696078475460E-02 -7.256588088277E-02
C9 9.124215837851E-02 1.977148592198E-01 -4.830191411259E-02
C10 -1.977148592198E-01 -9.124215837851E-02 4.830191411259E-02
C11 -3.230428894025E-01 -2.692713805621E-01 8.559657718873E-02
C12 -3.969197259539E-01 4.992818973202E-01 1.305394553214E-01
C13 -1.062291324269E-01 -3.924943207243E-01 3.005961417381E-02
C14 1.014232879197E-01 -1.442643171696E-01 1.471390839545E-01
C15 2.692713805621E-01 3.230428894025E-01 -8.559657718873E-02
C16 -4.992818973202E-01 3.969197259539E-01 -1.305394553214E-01
C17 3.924943207243E-01 1.062291324269E-01 -3.005961417381E-02
C18 1.442643171696E-01 -1.014232879197E-01 -1.471390839545E-01
C19 2.696078475460E-02 2.421774569893E-01 -7.256588088277E-02
C20 -2.421774569893E-01 -2.696078475460E-02 7.256588088277E-02
C21 4.992818973202E-01 -3.969197259539E-01 1.305394553214E-01
H22 -3.564476977570E-01 4.592261191096E-01 1.331665632825E-01
C23 4.340073017243E-01 3.811424824026E-01 1.702469839232E-01
H24 -2.049420923528E-01 -4.691820097883E-01 -2.830010907881E-02
C25 -6.009935934783E-02 -4.443490351757E-01 6.184317303054E-02
H26 1.632642642719E-01 -2.820275317201E-02 1.811429498902E-01
C27 1.502191992312E-01 -1.937717977489E-01 1.784686705214E-01
C28 3.969197259539E-01 -4.992818973202E-01 -1.305394553214E-01
H29 -4.592261191096E-01 3.564476977570E-01 -1.331665632825E-01
C30 -3.811424824026E-01 -4.340073017243E-01 -1.702469839232E-01
H31 4.691820097883E-01 2.049420923528E-01 2.830010907881E-02
C32 4.443490351757E-01 6.009935934783E-02 -6.184317303054E-02
H33 2.820275317201E-02 -1.632642642719E-01 -1.811429498902E-01
C34 1.937717977489E-01 -1.502191992312E-01 -1.784686705214E-01
C35 1.062291324269E-01 3.924943207243E-01 -3.005961417381E-02
C36 -1.014232879197E-01 1.442643171696E-01 -1.471390839545E-01
C37 -3.924943207243E-01 -1.062291324269E-01 3.005961417381E-02
C38 -1.442643171696E-01 1.014232879197E-01 1.471390839545E-01
H39 4.592261191096E-01 -3.564476977570E-01 1.331665632825E-01
C40 3.811424824026E-01 4.340073017243E-01 1.702469839232E-01
H41 3.405150541508E-01 2.482543878428E-01 2.039103498706E-01
H42 -1.244321774345E-01 4.374171450928E-01 2.874162734199E-02
C43 6.884948266698E-02 -3.449498093384E-01 1.360193606673E-01
H44 2.515371629032E-01 -1.139912431411E-01 2.360819872737E-01
H45 3.564476977570E-01 -4.592261191096E-01 -1.331665632825E-01
C46 -4.340073017243E-01 -3.811424824026E-01 -1.702469839232E-01
H47 -2.482543878428E-01 -3.405150541508E-01 -2.039103498706E-01
H48 -4.374171450928E-01 1.244321774345E-01 -2.874162734199E-02
C49 3.449498093384E-01 -6.884948266698E-02 -1.360193606673E-01
H50 1.139912431411E-01 -2.515371629032E-01 -2.360819872737E-01
H51 2.049420923528E-01 4.691820097883E-01 2.830010907881E-02
C52 6.009935934783E-02 4.443490351757E-01 -6.184317303054E-02
H53 -1.632642642719E-01 2.820275317201E-02 -1.811429498902E-01
C54 -1.502191992312E-01 1.937717977489E-01 -1.784686705214E-01
H55 -4.691820097883E-01 -2.049420923528E-01 -2.830010907881E-02
C56 -4.443490351757E-01 -6.009935934783E-02 6.184317303054E-02
H57 -2.820275317201E-02 1.632642642719E-01 1.811429498902E-01
C58 -1.937717977489E-01 1.502191992312E-01 1.784686705214E-01
H59 2.482543878428E-01 3.405150541508E-01 2.039103498706E-01
H60 1.047532797844E-01 -3.857841647916E-01 1.601772986658E-01
H61 -3.405150541508E-01 -2.482543878428E-01 -2.039103498706E-01
H62 3.857841647916E-01 -1.047532797844E-01 -1.601772986658E-01
H63 1.244321774345E-01 -4.374171450928E-01 -2.874162734199E-02
C64 -6.884948266698E-02 3.449498093384E-01 -1.360193606673E-01
H65 -2.515371629032E-01 1.139912431411E-01 -2.360819872737E-01
H66 4.374171450928E-01 -1.244321774345E-01 2.874162734199E-02
C67 -3.449498093384E-01 6.884948266698E-02 1.360193606673E-01
H68 -1.139912431411E-01 2.515371629032E-01 2.360819872737E-01
H69 -1.047532797844E-01 3.857841647916E-01 -1.601772986658E-01
H70 -3.857841647916E-01 1.047532797844E-01 1.601772986658E-01
C71 4.725962142340E-01 -4.725962142340E-01 -5.000000000000E-01
C72 -4.120944981248E-01 -3.057948899098E-01 -4.490716987724E-01
C73 3.057948899098E-01 4.120944981248E-01 4.490716987724E-01
C74 -4.725962142340E-01 4.725962142340E-01 -5.000000000000E-01
C75 -2.374857745225E-01 -1.837821404413E-01 -4.085021248280E-01
C76 -4.754553588675E-01 -2.601697185138E-01 -4.260232501922E-01
C77 1.837821404413E-01 2.374857745225E-01 4.085021248280E-01
C78 2.601697185138E-01 4.754553588675E-01 4.260232501922E-01
C79 4.120944981248E-01 3.057948899098E-01 4.490716987724E-01
C80 -3.057948899098E-01 -4.120944981248E-01 -4.490716987724E-01
C81 -1.837821404413E-01 -2.374857745225E-01 -4.085021248280E-01
C82 -1.129287680146E-01 -9.104449670164E-03 -3.610180460207E-01
C83 -3.960338598043E-01 -1.109640847907E-01 -4.705849292420E-01
C84 3.989270026881E-01 -3.540626124373E-01 -3.506143268857E-01
C85 2.374857745225E-01 1.837821404413E-01 4.085021248280E-01
C86 9.104449670164E-03 1.129287680146E-01 3.610180460207E-01
C87 1.109640847907E-01 3.960338598043E-01 4.705849292420E-01
C88 3.540626124373E-01 -3.989270026881E-01 3.506143268857E-01
C89 4.754553588675E-01 2.601697185138E-01 4.260232501922E-01
C90 -2.601697185138E-01 -4.754553588675E-01 -4.260232501922E-01
C91 -9.104449670164E-03 -1.129287680146E-01 -3.610180460207E-01
H92 -1.528245663259E-01 3.154483592782E-02 -3.591548033936E-01
C93 5.283486857320E-02 1.057347850963E-01 -3.182563079112E-01
H94 -2.984890926518E-01 -3.697335081713E-02 4.708137350719E-01
C95 -4.403471511754E-01 -5.679766321097E-02 -4.403577019304E-01
H96 3.380377151031E-01 -4.686124015776E-01 -3.148665482732E-01
C97 3.519089422867E-01 -3.021716276803E-01 -3.209134596401E-01
C98 1.129287680146E-01 9.104449670164E-03 3.610180460207E-01
H99 -3.154483592782E-02 1.528245663259E-01 3.591548033936E-01
C100 -1.057347850963E-01 -5.283486857320E-02 3.182563079112E-01
H101 3.697335081713E-02 2.984890926518E-01 -4.708137350719E-01
C102 5.679766321097E-02 4.403471511754E-01 4.403577019304E-01
H103 4.686124015776E-01 -3.380377151031E-01 3.148665482732E-01
C104 3.021716276803E-01 -3.519089422867E-01 3.209134596401E-01
C105 3.960338598043E-01 1.109640847907E-01 4.705849292420E-01
C106 -3.989270026881E-01 3.540626124373E-01 3.506143268857E-01
C107 -1.109640847907E-01 -3.960338598043E-01 -4.705849292420E-01
C108 -3.540626124373E-01 3.989270026881E-01 -3.506143268857E-01
H109 3.154483592782E-02 -1.528245663259E-01 -3.591548033936E-01
C110 1.057347850963E-01 5.283486857320E-02 -3.182563079112E-01
H111 1.438143605261E-01 2.363961007595E-01 -2.826691105826E-01
H112 -3.760558460104E-01 6.048411595157E-02 -4.750311651433E-01
C113 4.327744901694E-01 -1.525766887494E-01 -3.656492690432E-01
H114 2.523212951956E-01 -3.789264227925E-01 -2.628093087178E-01
H115 1.528245663259E-01 -3.154483592782E-02 3.591548033936E-01
C116 -5.283486857320E-02 -1.057347850963E-01 3.182563079112E-01
H117 -2.363961007595E-01 -1.438143605261E-01 2.826691105826E-01
H118 -6.048411595157E-02 3.760558460104E-01 4.750311651433E-01
C119 1.525766887494E-01 -4.327744901694E-01 3.656492690432E-01
H120 3.789264227925E-01 -2.523212951956E-01 2.628093087178E-01
H121 2.984890926518E-01 3.697335081713E-02 -4.708137350719E-01
C122 4.403471511754E-01 5.679766321097E-02 4.403577019304E-01
H123 -3.380377151031E-01 4.686124015776E-01 3.148665482732E-01
C124 -3.519089422867E-01 3.021716276803E-01 3.209134596401E-01
H125 -3.697335081713E-02 -2.984890926518E-01 4.708137350719E-01
C126 -5.679766321097E-02 -4.403471511754E-01 -4.403577019304E-01
H127 -4.686124015776E-01 3.380377151031E-01 -3.148665482732E-01
C128 -3.021716276803E-01 3.519089422867E-01 -3.209134596401E-01
H129 2.363961007595E-01 1.438143605261E-01 -2.826691105826E-01
H130 3.982491405890E-01 -1.099552711444E-01 -3.426718873877E-01
H131 -1.438143605261E-01 -2.363961007595E-01 2.826691105826E-01
H132 1.099552711444E-01 -3.982491405890E-01 3.426718873877E-01
H133 3.760558460104E-01 -6.048411595157E-02 4.750311651433E-01
C134 -4.327744901694E-01 1.525766887494E-01 3.656492690432E-01
H135 -2.523212951956E-01 3.789264227925E-01 2.628093087178E-01
H136 6.048411595157E-02 -3.760558460104E-01 -4.750311651433E-01
C137 -1.525766887494E-01 4.327744901694E-01 -3.656492690432E-01
H138 -3.789264227925E-01 2.523212951956E-01 -2.628093087178E-01
H139 -3.982491405890E-01 1.099552711444E-01 3.426718873877E-01
H140 -1.099552711444E-01 3.982491405890E-01 -3.426718873877E-01


#===END
