###############################################################
#
#primitive cell cif file
#
###############################################################

posm21_data

_symmetry_space_group_name_H-M 'P 1'
_cell_length_a      13.86596031
_cell_length_b      13.86596031
_cell_length_c      14.21100000
_cell_angle_alpha   90.000000
_cell_angle_beta    90.000000
_cell_angle_gamma   150.032293

loop_
_atom_site_label
_atom_site_fract_x
_atom_site_fract_y
_atom_site_fract_z
C1 2.742736104214E-02 -2.742736104214E-02 0.000000000000E+00
C2 -8.845725964417E-02 -1.949423405561E-01 5.037229966019E-02
C3 1.949423405561E-01 8.845725964417E-02 -5.037229966019E-02
C4 -2.742736104214E-02 2.742736104214E-02 0.000000000000E+00
C5 -2.635835439732E-01 -3.173285045141E-01 9.040448385765E-02
C6 -2.531229049374E-02 -2.409818669936E-01 7.305583509056E-02
C7 3.173285045141E-01 2.635835439732E-01 -9.040448385765E-02
C8 2.409818669936E-01 2.531229049374E-02 -7.305583509056E-02
C9 8.845725964417E-02 1.949423405561E-01 -5.037229966019E-02
C10 -1.949423405561E-01 -8.845725964417E-02 5.037229966019E-02
C11 -3.173285045141E-01 -2.635835439732E-01 9.040448385765E-02
C12 -3.883944060714E-01 -4.921929745874E-01 1.377515239621E-01
C13 -1.084497402429E-01 -3.932837605599E-01 2.981110700528E-02
C14 1.049828387934E-01 -1.435496114196E-01 1.464656914145E-01
C15 2.635835439732E-01 3.173285045141E-01 -9.040448385765E-02
C16 4.921929745874E-01 3.883944060714E-01 -1.377515239621E-01
C17 3.932837605599E-01 1.084497402429E-01 -2.981110700528E-02
C18 1.435496114196E-01 -1.049828387934E-01 -1.464656914145E-01
C19 2.531229049374E-02 2.409818669936E-01 -7.305583509056E-02
C20 -2.409818669936E-01 -2.531229049374E-02 7.305583509056E-02
C21 -4.921929745874E-01 -3.883944060714E-01 1.377515239621E-01
H22 -3.483293188713E-01 4.673380041686E-01 1.399713409258E-01
C23 4.455924542563E-01 3.927085959467E-01 1.802172186275E-01
H24 -2.087543371570E-01 -4.694375057473E-01 -2.761685565147E-02
C25 -6.397912125955E-02 -4.474683544506E-01 5.959206077060E-02
H26 1.701229602114E-01 -2.560215574973E-02 1.808882759127E-01
C27 1.517398073053E-01 -1.958115662052E-01 1.759193847696E-01
C28 3.883944060714E-01 4.921929745874E-01 -1.377515239621E-01
H29 -4.673380041686E-01 3.483293188713E-01 -1.399713409258E-01
C30 -3.927085959467E-01 -4.455924542563E-01 -1.802172186275E-01
H31 4.694375057473E-01 2.087543371570E-01 2.761685565147E-02
C32 4.474683544506E-01 6.397912125955E-02 -5.959206077060E-02
H33 2.560215574973E-02 -1.701229602114E-01 -1.808882759127E-01
C34 1.958115662052E-01 -1.517398073053E-01 -1.759193847696E-01
C35 1.084497402429E-01 3.932837605599E-01 -2.981110700528E-02
C36 -1.049828387934E-01 1.435496114196E-01 -1.464656914145E-01
C37 -3.932837605599E-01 -1.084497402429E-01 2.981110700528E-02
C38 -1.435496114196E-01 1.049828387934E-01 1.464656914145E-01
H39 4.673380041686E-01 -3.483293188713E-01 1.399713409258E-01
C40 3.927085959467E-01 4.455924542563E-01 1.802172186275E-01
H41 3.544887653710E-01 2.619849939467E-01 2.156932642448E-01
H42 -1.305330285065E-01 4.334360314596E-01 2.567596142474E-02
C43 6.659777026670E-02 -3.488892234023E-01 1.326961940550E-01
H44 2.543843851545E-01 -1.166427846914E-01 2.327249165704E-01
H45 3.483293188713E-01 -4.673380041686E-01 -1.399713409258E-01
C46 -4.455924542563E-01 -3.927085959467E-01 -1.802172186275E-01
H47 -2.619849939467E-01 -3.544887653710E-01 -2.156932642448E-01
H48 -4.334360314596E-01 1.305330285065E-01 -2.567596142474E-02
C49 3.488892234023E-01 -6.659777026670E-02 -1.326961940550E-01
H50 1.166427846914E-01 -2.543843851545E-01 -2.327249165704E-01
H51 2.087543371570E-01 4.694375057473E-01 2.761685565147E-02
C52 6.397912125955E-02 4.474683544506E-01 -5.959206077060E-02
H53 -1.701229602114E-01 2.560215574973E-02 -1.808882759127E-01
C54 -1.517398073053E-01 1.958115662052E-01 -1.759193847696E-01
H55 -4.694375057473E-01 -2.087543371570E-01 -2.761685565147E-02
C56 -4.474683544506E-01 -6.397912125955E-02 5.959206077060E-02
H57 -2.560215574973E-02 1.701229602114E-01 1.808882759127E-01
C58 -1.958115662052E-01 1.517398073053E-01 1.759193847696E-01
H59 2.619849939467E-01 3.544887653710E-01 2.156932642448E-01
H60 1.011217993859E-01 -3.915945923717E-01 1.554969959994E-01
H61 -3.544887653710E-01 -2.619849939467E-01 -2.156932642448E-01
H62 3.915945923717E-01 -1.011217993859E-01 -1.554969959994E-01
H63 1.305330285065E-01 -4.334360314596E-01 -2.567596142474E-02
C64 -6.659777026670E-02 3.488892234023E-01 -1.326961940550E-01
H65 -2.543843851545E-01 1.166427846914E-01 -2.327249165704E-01
H66 4.334360314596E-01 -1.305330285065E-01 2.567596142474E-02
C67 -3.488892234023E-01 6.659777026670E-02 1.326961940550E-01
H68 -1.166427846914E-01 2.543843851545E-01 2.327249165704E-01
H69 -1.011217993859E-01 3.915945923717E-01 -1.554969959994E-01
H70 -3.915945923717E-01 1.011217993859E-01 1.554969959994E-01
C71 4.725726389579E-01 -4.725726389579E-01 -5.000000000000E-01
C72 -4.115427403558E-01 -3.050576594439E-01 -4.496277003398E-01
C73 3.050576594439E-01 4.115427403558E-01 4.496277003398E-01
C74 -4.725726389579E-01 4.725726389579E-01 -5.000000000000E-01
C75 -2.364164560268E-01 -1.826714954859E-01 -4.095955161424E-01
C76 -4.746877095063E-01 -2.590181330064E-01 -4.269441649094E-01
C77 1.826714954859E-01 2.364164560268E-01 4.095955161424E-01
C78 2.590181330064E-01 4.746877095063E-01 4.269441649094E-01
C79 4.115427403558E-01 3.050576594439E-01 4.496277003398E-01
C80 -3.050576594439E-01 -4.115427403558E-01 -4.496277003398E-01
C81 -1.826714954859E-01 -2.364164560268E-01 -4.095955161424E-01
C82 -1.116055939286E-01 -7.807025412556E-03 -3.622484760379E-01
C83 -3.915502597571E-01 -1.067162394401E-01 -4.701888929947E-01
C84 3.950171612066E-01 -3.564503885804E-01 -3.535343085855E-01
C85 2.364164560268E-01 1.826714954859E-01 4.095955161424E-01
C86 7.807025412555E-03 1.116055939286E-01 3.622484760379E-01
C87 1.067162394401E-01 3.915502597571E-01 4.701888929947E-01
C88 3.564503885804E-01 -3.950171612066E-01 3.535343085855E-01
C89 4.746877095063E-01 2.590181330064E-01 4.269441649094E-01
C90 -2.590181330064E-01 -4.746877095063E-01 -4.269441649094E-01
C91 -7.807025412555E-03 -1.116055939286E-01 -3.622484760379E-01
H92 -1.516706811287E-01 3.266199583137E-02 -3.600286590742E-01
C93 5.440754574366E-02 1.072914040533E-01 -3.197827813725E-01
H94 -2.912456628430E-01 -3.056249425268E-02 4.723831443485E-01
C95 -4.360208787405E-01 -5.253164554937E-02 -4.404079392294E-01
H96 3.298770397886E-01 -4.743978442503E-01 -3.191117240873E-01
C97 3.482601926947E-01 -3.041884337948E-01 -3.240806152304E-01
C98 1.116055939286E-01 7.807025412555E-03 3.622484760379E-01
H99 -3.266199583137E-02 1.516706811287E-01 3.600286590742E-01
C100 -1.072914040533E-01 -5.440754574366E-02 3.197827813725E-01
H101 3.056249425268E-02 2.912456628430E-01 -4.723831443485E-01
C102 5.253164554937E-02 4.360208787405E-01 4.404079392294E-01
H103 4.743978442503E-01 -3.298770397886E-01 3.191117240873E-01
C104 3.041884337948E-01 -3.482601926947E-01 3.240806152304E-01
C105 3.915502597571E-01 1.067162394401E-01 4.701888929947E-01
C106 -3.950171612066E-01 3.564503885804E-01 3.535343085855E-01
C107 -1.067162394401E-01 -3.915502597571E-01 -4.701888929947E-01
C108 -3.564503885804E-01 3.950171612066E-01 -3.535343085855E-01
H109 3.266199583137E-02 -1.516706811287E-01 -3.600286590742E-01
C110 1.072914040533E-01 5.440754574366E-02 -3.197827813725E-01
H111 1.455112346290E-01 2.380150060533E-01 -2.843067357552E-01
H112 -3.694669714935E-01 6.656396854038E-02 -4.743240385753E-01
C113 4.334022297333E-01 -1.511107765977E-01 -3.673038059450E-01
H114 2.456156148455E-01 -3.833572153086E-01 -2.672750834296E-01
H115 1.516706811287E-01 -3.266199583137E-02 3.600286590742E-01
C116 -5.440754574366E-02 -1.072914040533E-01 3.197827813725E-01
H117 -2.380150060533E-01 -1.455112346290E-01 2.843067357552E-01
H118 -6.656396854038E-02 3.694669714935E-01 4.743240385753E-01
C119 1.511107765977E-01 -4.334022297333E-01 3.673038059450E-01
H120 3.833572153086E-01 -2.456156148455E-01 2.672750834296E-01
H121 2.912456628430E-01 3.056249425268E-02 -4.723831443485E-01
C122 4.360208787405E-01 5.253164554937E-02 4.404079392294E-01
H123 -3.298770397886E-01 4.743978442503E-01 3.191117240873E-01
C124 -3.482601926947E-01 3.041884337948E-01 3.240806152304E-01
H125 -3.056249425268E-02 -2.912456628430E-01 4.723831443485E-01
C126 -5.253164554937E-02 -4.360208787405E-01 -4.404079392294E-01
H127 -4.743978442503E-01 3.298770397886E-01 -3.191117240873E-01
C128 -3.041884337948E-01 3.482601926947E-01 -3.240806152304E-01
H129 2.380150060533E-01 1.455112346290E-01 -2.843067357552E-01
H130 3.988782006141E-01 -1.084054076283E-01 -3.445030040006E-01
H131 -1.455112346290E-01 -2.380150060533E-01 2.843067357552E-01
H132 1.084054076283E-01 -3.988782006141E-01 3.445030040006E-01
H133 3.694669714935E-01 -6.656396854038E-02 4.743240385753E-01
C134 -4.334022297333E-01 1.511107765977E-01 3.673038059450E-01
H135 -2.456156148455E-01 3.833572153086E-01 2.672750834296E-01
H136 6.656396854038E-02 -3.694669714935E-01 -4.743240385753E-01
C137 -1.511107765977E-01 4.334022297333E-01 -3.673038059450E-01
H138 -3.833572153086E-01 2.456156148455E-01 -2.672750834296E-01
H139 -3.988782006141E-01 1.084054076283E-01 3.445030040006E-01
H140 -1.084054076283E-01 3.988782006141E-01 -3.445030040006E-01


#===END
