###############################################################
#
#primitive cell cif file
#
###############################################################

posm6_data

_symmetry_space_group_name_H-M 'P 1'
_cell_length_a      13.86596031
_cell_length_b      13.86596031
_cell_length_c      14.21100000
_cell_angle_alpha   90.000000
_cell_angle_beta    90.000000
_cell_angle_gamma   150.032293

loop_
_atom_site_label
_atom_site_fract_x
_atom_site_fract_y
_atom_site_fract_z
C1 2.521080387185E-02 -2.960741927018E-02 -9.898531018225E-04
C2 -9.423622280385E-02 -2.000281223613E-01 4.757079563183E-02
C3 1.918918469488E-01 8.491143744982E-02 -5.165941970839E-02
C4 -2.521080387185E-02 2.960741927018E-02 9.898531018225E-04
C5 -2.691095012024E-01 -3.213734540492E-01 8.729772455260E-02
C6 -3.333096290383E-02 -2.484137695269E-01 6.980999632222E-02
C7 3.178872949121E-01 2.626761048372E-01 -8.979672780811E-02
C8 2.335939689487E-01 1.817446298325E-02 -7.673263436838E-02
C9 9.423622280385E-02 2.000281223613E-01 -4.757079563183E-02
C10 -1.918918469488E-01 -8.491143744982E-02 5.165941970839E-02
C11 -3.178872949121E-01 -2.626761048372E-01 8.979672780811E-02
C12 -3.984167634770E-01 -4.999919197919E-01 1.318499952673E-01
C13 -1.148483713293E-01 -3.990501635619E-01 2.547692959412E-02
C14 9.431999185795E-02 -1.535953833857E-01 1.442218086517E-01
C15 2.691095012024E-01 3.213734540492E-01 -8.729772455260E-02
C16 4.916217332178E-01 3.855741944623E-01 -1.376714140334E-01
C17 3.824800723716E-01 9.534690129336E-02 -3.399775533770E-02
C18 1.366063213466E-01 -1.081762933737E-01 -1.523029484171E-01
C19 3.333096290383E-02 2.484137695269E-01 -6.980999632222E-02
C20 -2.335939689487E-01 -1.817446298325E-02 7.673263436838E-02
C21 -4.916217332178E-01 -3.855741944623E-01 1.376714140334E-01
H22 -3.623633388995E-01 4.554637130077E-01 1.317880724999E-01
C23 4.361599109443E-01 3.862425113951E-01 1.743269897546E-01
H24 -2.131095860675E-01 -4.732280309115E-01 -3.267971178242E-02
C25 -7.123463217321E-02 -4.540833940731E-01 5.526180835219E-02
H26 1.581393616952E-01 -3.697412360146E-02 1.794906796771E-01
C27 1.403355715672E-01 -2.065811322467E-01 1.736173114680E-01
C28 3.984167634770E-01 4.999919197919E-01 -1.318499952673E-01
H29 -4.722175701740E-01 3.412597925316E-01 -1.422236873891E-01
C30 -3.891651859112E-01 -4.450125222067E-01 -1.776636862574E-01
H31 4.589806280597E-01 1.933434136335E-01 2.480666222447E-02
C32 4.334679778917E-01 4.851757599926E-02 -6.622366274794E-02
H33 2.261622799294E-02 -1.670871874736E-01 -1.867857219400E-01
C34 1.850190378219E-01 -1.579746853773E-01 -1.839378994133E-01
C35 1.148483713293E-01 3.990501635619E-01 -2.547692959412E-02
C36 -9.431999185795E-02 1.535953833857E-01 -1.442218086517E-01
C37 -3.824800723716E-01 -9.534690129336E-02 3.399775533770E-02
C38 -1.366063213466E-01 1.081762933737E-01 1.523029484171E-01
H39 4.722175701740E-01 -3.412597925316E-01 1.422236873891E-01
C40 3.891651859112E-01 4.450125222067E-01 1.776636862574E-01
H41 3.409889374593E-01 2.521364979410E-01 2.073688060600E-01
H42 -1.367699554349E-01 4.278823610793E-01 2.062514698445E-02
C43 5.679140427668E-02 -3.580391119573E-01 1.293252610648E-01
H44 2.411607293612E-01 -1.292257882739E-01 2.311050028245E-01
H45 3.623633388995E-01 -4.554637130077E-01 -1.317880724999E-01
C46 -4.361599109443E-01 -3.862425113951E-01 -1.743269897546E-01
H47 -2.597217891422E-01 -3.557117561655E-01 -2.138724332280E-01
H48 -4.490506680619E-01 1.116063759891E-01 -3.308531521427E-02
C49 3.343340086317E-01 -7.928358822086E-02 -1.410448305593E-01
H50 1.058390320747E-01 -2.580551383464E-01 -2.421676757314E-01
H51 2.131095860675E-01 4.732280309115E-01 3.267971178242E-02
C52 7.123463217321E-02 4.540833940731E-01 -5.526180835219E-02
H53 -1.581393616952E-01 3.697412360146E-02 -1.794906796771E-01
C54 -1.403355715672E-01 2.065811322467E-01 -1.736173114680E-01
H55 -4.589806280597E-01 -1.933434136335E-01 -2.480666222447E-02
C56 -4.334679778917E-01 -4.851757599926E-02 6.622366274794E-02
H57 -2.261622799294E-02 1.670871874736E-01 1.867857219400E-01
C58 -1.850190378219E-01 1.579746853773E-01 1.839378994133E-01
H59 2.597217891422E-01 3.557117561655E-01 2.138724332280E-01
H60 9.004420434731E-02 -4.019538030898E-01 1.522805872657E-01
H61 -3.409889374593E-01 -2.521364979410E-01 -2.073688060600E-01
H62 3.738750905574E-01 -1.164599348480E-01 -1.652248240123E-01
H63 1.367699554349E-01 -4.278823610793E-01 -2.062514698445E-02
C64 -5.679140427668E-02 3.580391119573E-01 -1.293252610648E-01
H65 -2.411607293612E-01 1.292257882739E-01 -2.311050028245E-01
H66 4.490506680619E-01 -1.116063759891E-01 3.308531521427E-02
C67 -3.343340086317E-01 7.928358822086E-02 1.410448305593E-01
H68 -1.058390320747E-01 2.580551383464E-01 2.421676757314E-01
H69 -9.004420434731E-02 4.019538030898E-01 -1.522805872657E-01
H70 -3.738750905574E-01 1.164599348480E-01 1.652248240123E-01
C71 4.703925807298E-01 -4.747891961281E-01 -4.990101468982E-01
C72 -4.150885625502E-01 -3.081081530512E-01 -4.483405802916E-01
C73 2.999718776387E-01 4.057637771961E-01 4.524292043682E-01
C74 -4.703925807298E-01 4.747891961281E-01 4.990101468982E-01
C75 -2.373238951628E-01 -1.821127050879E-01 -4.102032721919E-01
C76 -4.818255370167E-01 -2.664060310513E-01 -4.232673656316E-01
C77 1.786265459508E-01 2.308904987976E-01 4.127022754474E-01
C78 2.515862304731E-01 4.666690370962E-01 4.301900036778E-01
C79 4.150885625502E-01 3.081081530512E-01 4.483405802916E-01
C80 -2.999718776387E-01 -4.057637771961E-01 -4.524292043682E-01
C81 -1.786265459508E-01 -2.308904987976E-01 -4.127022754474E-01
C82 -1.144258055377E-01 -8.378266782243E-03 -3.623285859666E-01
C83 -4.046530987066E-01 -1.175199276284E-01 -4.660022446623E-01
C84 3.918237066263E-01 -3.633936786534E-01 -3.476970515829E-01
C85 2.373238951628E-01 1.821127050879E-01 4.102032721919E-01
C86 8.080208098282E-06 1.015832365230E-01 3.681500047327E-01
C87 1.009498364381E-01 3.851516286707E-01 4.745230704059E-01
C88 3.464046166143E-01 -4.056800081421E-01 3.557781913483E-01
C89 4.818255370167E-01 2.664060310513E-01 4.232673656316E-01
C90 -2.515862304731E-01 -4.666690370962E-01 -4.301900036778E-01
C91 -8.080208098287E-06 -1.015832365230E-01 -3.681500047327E-01
H92 -1.587402074684E-01 2.778242982597E-02 -3.577763126109E-01
C93 5.498747779326E-02 1.108348140888E-01 -3.223363137426E-01
H94 -3.066565863665E-01 -4.101937194034E-02 4.751933377755E-01
C95 -4.514824240007E-01 -6.653202210832E-02 -4.337763372521E-01
H96 3.329128125264E-01 -4.773837720071E-01 -3.132142780600E-01
C97 3.420253146227E-01 -3.149809621781E-01 -3.160621005867E-01
C98 1.144258055377E-01 8.378266782242E-03 3.623285859666E-01
H99 -4.453628699229E-02 1.376366611005E-01 3.682119275001E-01
C100 -1.137574886049E-01 -6.384008905566E-02 3.256730102454E-01
H101 2.677196908846E-02 2.868904139325E-01 -4.673202882176E-01
C102 4.591660592691E-02 4.287653678268E-01 4.447381916478E-01
H103 4.630258763985E-01 -3.418606383048E-01 3.205093203229E-01
C104 2.934188677533E-01 -3.596644284328E-01 3.263826885320E-01
C105 4.046530987066E-01 1.175199276284E-01 4.660022446623E-01
C106 -3.918237066263E-01 3.633936786534E-01 3.476970515829E-01
C107 -1.009498364381E-01 -3.851516286707E-01 -4.745230704059E-01
C108 -3.464046166143E-01 4.056800081421E-01 -3.557781913483E-01
H109 4.453628699229E-02 -1.376366611005E-01 -3.682119275001E-01
C110 1.137574886049E-01 6.384008905566E-02 -3.256730102454E-01
H111 1.442882438345E-01 2.402782108578E-01 -2.861275667720E-01
H112 -3.883936240109E-01 5.094933193807E-02 -4.669146847857E-01
C113 4.207164117791E-01 -1.656659913683E-01 -3.589551694407E-01
H114 2.419448616536E-01 -3.941609679253E-01 -2.578323242686E-01
H115 1.587402074684E-01 -2.778242982597E-02 3.577763126109E-01
C116 -5.498747779326E-02 -1.108348140888E-01 3.223363137426E-01
H117 -2.478635020590E-01 -1.590110625407E-01 2.926311939400E-01
H118 -7.211763892070E-02 3.632300445651E-01 4.793748530156E-01
C119 1.419608880427E-01 -4.432085957233E-01 3.706747389352E-01
H120 3.707742117261E-01 -2.588392706388E-01 2.688949971755E-01
H121 3.066565863665E-01 4.101937194034E-02 -4.751933377755E-01
C122 4.514824240007E-01 6.653202210832E-02 4.337763372521E-01
H123 -3.329128125264E-01 4.773837720071E-01 3.132142780600E-01
C124 -3.420253146227E-01 3.149809621781E-01 3.160621005867E-01
H125 -2.677196908846E-02 -2.868904139325E-01 4.673202882176E-01
C126 -4.591660592691E-02 -4.287653678268E-01 -4.447381916478E-01
H127 -4.630258763985E-01 3.418606383048E-01 -3.205093203229E-01
C128 -2.934188677533E-01 3.596644284328E-01 -3.263826885320E-01
H129 2.478635020590E-01 1.590110625407E-01 -2.926311939400E-01
H130 3.835400651520E-01 -1.261249094426E-01 -3.347751759877E-01
H131 -1.442882438345E-01 -2.402782108578E-01 2.861275667720E-01
H132 9.804619691015E-02 -4.099557956527E-01 3.477194127343E-01
H133 3.883936240109E-01 -5.094933193807E-02 4.669146847857E-01
C134 -4.207164117791E-01 1.656659913683E-01 3.589551694407E-01
H135 -2.419448616536E-01 3.941609679253E-01 2.578323242686E-01
H136 7.211763892070E-02 -3.632300445651E-01 -4.793748530156E-01
C137 -1.419608880427E-01 4.432085957233E-01 -3.706747389352E-01
H138 -3.707742117261E-01 2.588392706388E-01 -2.688949971755E-01
H139 -3.835400651520E-01 1.261249094426E-01 3.347751759877E-01
H140 -9.804619691015E-02 4.099557956527E-01 -3.477194127343E-01


#===END
