###############################################################
#
#primitive cell cif file
#
###############################################################

posm4_data

_symmetry_space_group_name_H-M 'P 1'
_cell_length_a      13.86596031
_cell_length_b      13.86596031
_cell_length_c      14.21100000
_cell_angle_alpha   90.000000
_cell_angle_beta    90.000000
_cell_angle_gamma   150.032293

loop_
_atom_site_label
_atom_site_fract_x
_atom_site_fract_y
_atom_site_fract_z
C1 3.210054760995E-02 -3.210054760995E-02 0.000000000000E+00
C2 -8.535863312689E-02 -2.011448361833E-01 4.930587369770E-02
C3 2.011448361833E-01 8.535863312689E-02 -4.930587369770E-02
C4 -2.271767553208E-02 2.271767553208E-02 0.000000000000E+00
C5 -2.616772911826E-01 -3.247004744835E-01 8.817148417733E-02
C6 -2.211871989412E-02 -2.468926613396E-01 7.295498997038E-02
C7 3.247004744835E-01 2.616772911826E-01 -8.817148417733E-02
C8 2.468926613396E-01 2.211871989412E-02 -7.295498997038E-02
C9 9.378902712678E-02 1.907751331268E-01 -4.992434164253E-02
C10 -1.907751331268E-01 -9.378902712678E-02 4.992434164253E-02
C11 -3.145602744778E-01 -2.701083148570E-01 8.892296818338E-02
C12 -3.885573558108E-01 4.982021613709E-01 1.335554427308E-01
C13 -9.875345828303E-02 -3.941407470866E-01 2.782310352551E-02
C14 1.010002744482E-01 -1.546361658844E-01 1.494847699653E-01
C15 2.701083148570E-01 3.145602744778E-01 -8.892296818338E-02
C16 -4.982021613709E-01 3.885573558108E-01 -1.335554427308E-01
C17 3.941407470866E-01 9.875345828303E-02 -2.782310352551E-02
C18 1.546361658844E-01 -1.010002744482E-01 -1.494847699653E-01
C19 2.938670599297E-02 2.351150771359E-01 -7.358764072022E-02
C20 -2.351150771359E-01 -2.938670599297E-02 7.358764072022E-02
C21 -4.898158143806E-01 -3.954336021285E-01 1.359659665698E-01
H22 -3.489748934123E-01 4.571489547467E-01 1.349628804539E-01
C23 4.444343170341E-01 3.820927282655E-01 1.751653542433E-01
H24 -1.942248255880E-01 -4.669005027836E-01 -3.167341772908E-02
C25 -5.423401646548E-02 -4.479550524941E-01 5.869350099451E-02
H26 1.597148624644E-01 -4.169909778940E-02 1.857333085672E-01
C27 1.488651142136E-01 -2.056464328572E-01 1.795728228154E-01
C28 3.954336021285E-01 4.898158143806E-01 -1.359659665698E-01
H29 -4.571489547467E-01 3.489748934123E-01 -1.349628804539E-01
C30 -3.820927282655E-01 -4.444343170341E-01 -1.751653542433E-01
H31 4.669005027836E-01 1.942248255880E-01 3.167341772908E-02
C32 4.479550524941E-01 5.423401646548E-02 -5.869350099451E-02
H33 4.169909778940E-02 -1.597148624644E-01 -1.857333085672E-01
C34 2.056464328572E-01 -1.488651142136E-01 -1.795728228154E-01
C35 1.114418143396E-01 3.873894888470E-01 -3.165158140630E-02
C36 -1.014960107835E-01 1.355655388479E-01 -1.470399871034E-01
C37 -3.873894888470E-01 -1.114418143396E-01 3.165158140630E-02
C38 -1.355655388479E-01 1.014960107835E-01 1.470399871034E-01
H39 4.705323284350E-01 -3.546482380188E-01 1.390488794351E-01
C40 3.933149690408E-01 4.367381161170E-01 1.768253217687E-01
H41 3.513833201638E-01 2.494467003450E-01 2.090344690912E-01
H42 -1.167333680382E-01 4.360482513378E-01 2.360506246035E-02
C43 7.041401375597E-02 -3.535274282907E-01 1.343709161289E-01
H44 2.471350201079E-01 -1.294156835701E-01 2.383114192252E-01
H45 3.546482380188E-01 -4.705323284350E-01 -1.390488794351E-01
C46 -4.367381161170E-01 -3.933149690408E-01 -1.768253217687E-01
H47 -2.494467003450E-01 -3.513833201638E-01 -2.090344690912E-01
H48 -4.360482513378E-01 1.167333680382E-01 -2.360506246035E-02
C49 3.535274282907E-01 -7.041401375597E-02 -1.343709161289E-01
H50 1.294156835701E-01 -2.471350201079E-01 -2.383114192252E-01
H51 2.122281741131E-01 4.653081561876E-01 2.581295627781E-02
C52 6.551819170699E-02 4.395963194707E-01 -6.279197010562E-02
H53 -1.655116867043E-01 1.789125380501E-02 -1.805430930499E-01
C54 -1.494451427309E-01 1.859537372115E-01 -1.779823880659E-01
H55 -4.653081561876E-01 -2.122281741131E-01 -2.581295627781E-02
C56 -4.395963194707E-01 -6.551819170699E-02 6.279197010562E-02
H57 -1.789125380501E-02 1.655116867043E-01 1.805430930499E-01
C58 -1.859537372115E-01 1.494451427309E-01 1.779823880659E-01
H59 2.624115867382E-01 3.453173734610E-01 2.122067701968E-01
H60 1.048148386244E-01 -3.961431041639E-01 1.578960756363E-01
H61 -3.453173734610E-01 -2.624115867382E-01 -2.122067701968E-01
H62 3.961431041639E-01 -1.048148386244E-01 -1.578960756363E-01
H63 1.316429633859E-01 -4.408847778035E-01 -3.010539973837E-02
C64 -6.566097874157E-02 3.388456922983E-01 -1.359991754952E-01
H65 -2.520808475997E-01 1.056491367785E-01 -2.349612593307E-01
H66 4.408847778035E-01 -1.316429633859E-01 3.010539973837E-02
C67 -3.388456922983E-01 6.566097874157E-02 1.359991754952E-01
H68 -1.056491367785E-01 2.520808475997E-01 2.349612593307E-01
H69 -1.016893005710E-01 3.796857894834E-01 -1.596093356417E-01
H70 -3.796857894834E-01 1.016893005710E-01 1.596093356417E-01
C71 4.678994523900E-01 -4.678994523900E-01 -5.000000000000E-01
C72 -4.146413668731E-01 -2.988551638167E-01 -4.506941263023E-01
C73 2.988551638167E-01 4.146413668731E-01 4.506941263023E-01
C74 -4.772823244679E-01 4.772823244679E-01 -5.000000000000E-01
C75 -2.383227088174E-01 -1.752995255165E-01 -4.118285158227E-01
C76 -4.778812801059E-01 -2.531073386604E-01 -4.270450100296E-01
C77 1.752995255165E-01 2.383227088174E-01 4.118285158227E-01
C78 2.531073386604E-01 4.778812801059E-01 4.270450100296E-01
C79 4.062109728732E-01 3.092248668732E-01 4.500756583575E-01
C80 -3.092248668732E-01 -4.062109728732E-01 -4.500756583575E-01
C81 -1.854397255222E-01 -2.298916851430E-01 -4.110770318166E-01
C82 -1.114426441892E-01 1.797838629104E-03 -3.664445572692E-01
C83 -4.012465417170E-01 -1.058592529134E-01 -4.721768964745E-01
C84 3.989997255518E-01 -3.453638341156E-01 -3.505152300347E-01
C85 2.298916851430E-01 1.854397255222E-01 4.110770318166E-01
C86 -1.797838629105E-03 1.114426441892E-01 3.664445572692E-01
C87 1.058592529134E-01 4.012465417170E-01 4.721768964745E-01
C88 3.453638341156E-01 -3.989997255518E-01 3.505152300347E-01
C89 4.706132940070E-01 2.648849228641E-01 4.264123592798E-01
C90 -2.648849228641E-01 -4.706132940070E-01 -4.264123592798E-01
C91 -1.018418561945E-02 -1.045663978715E-01 -3.640340334302E-01
H92 -1.510251065877E-01 4.285104525326E-02 -3.650371195461E-01
C93 5.556568296595E-02 1.179072717345E-01 -3.248346457567E-01
H94 -3.057751744120E-01 -3.309949721641E-02 4.683265822709E-01
C95 -4.457659835345E-01 -5.204494750593E-02 -4.413064990055E-01
H96 3.402851375356E-01 -4.583009022106E-01 -3.142666914328E-01
C97 3.511348857864E-01 -2.943535671428E-01 -3.204271771846E-01
C98 1.045663978715E-01 1.018418561945E-02 3.640340334302E-01
H99 -4.285104525327E-02 1.510251065877E-01 3.650371195461E-01
C100 -1.179072717345E-01 -5.556568296595E-02 3.248346457567E-01
H101 3.309949721641E-02 3.057751744120E-01 -4.683265822709E-01
C102 5.204494750593E-02 4.457659835345E-01 4.413064990055E-01
H103 4.583009022106E-01 -3.402851375356E-01 3.142666914328E-01
C104 2.943535671428E-01 -3.511348857864E-01 3.204271771846E-01
C105 3.885581856604E-01 1.126105111530E-01 4.683484185937E-01
C106 -3.985039892165E-01 3.644344611521E-01 3.529600128966E-01
C107 -1.126105111530E-01 -3.885581856604E-01 -4.683484185937E-01
C108 -3.644344611521E-01 3.985039892165E-01 -3.529600128966E-01
H109 2.946767156499E-02 -1.453517619812E-01 -3.609511205649E-01
C110 1.066850309592E-01 6.326188388297E-02 -3.231746782313E-01
H111 1.486166798362E-01 2.505532996550E-01 -2.909655309088E-01
H112 -3.832666319618E-01 6.395174866224E-02 -4.763949375397E-01
C113 4.295859862440E-01 -1.464725717093E-01 -3.656290838711E-01
H114 2.528649798921E-01 -3.705843164299E-01 -2.616885807748E-01
H115 1.453517619812E-01 -2.946767156499E-02 3.609511205649E-01
C116 -6.326188388297E-02 -1.066850309592E-01 3.231746782313E-01
H117 -2.505532996550E-01 -1.486166798362E-01 2.909655309088E-01
H118 -6.395174866224E-02 3.832666319618E-01 4.763949375397E-01
C119 1.464725717093E-01 -4.295859862440E-01 3.656290838711E-01
H120 3.705843164299E-01 -2.528649798921E-01 2.616885807748E-01
H121 2.877718258869E-01 3.469184381240E-02 -4.741870437222E-01
C122 4.344818082930E-01 6.040368052930E-02 4.372080298944E-01
H123 -3.344883132957E-01 4.821087461950E-01 3.194569069501E-01
C124 -3.505548572691E-01 3.140462627885E-01 3.220176119341E-01
H125 -3.469184381240E-02 -2.877718258869E-01 4.741870437222E-01
C126 -6.040368052930E-02 -4.344818082930E-01 -4.372080298944E-01
H127 -4.821087461950E-01 3.344883132957E-01 -3.194569069501E-01
C128 -3.140462627885E-01 3.505548572691E-01 -3.220176119341E-01
H129 2.375884132618E-01 1.546826265390E-01 -2.877932298032E-01
H130 3.951851613756E-01 -1.038568958361E-01 -3.421039243637E-01
H131 -1.546826265390E-01 -2.375884132618E-01 2.877932298032E-01
H132 1.038568958361E-01 -3.951851613756E-01 3.421039243637E-01
H133 3.683570366141E-01 -5.911522219653E-02 4.698946002616E-01
C134 -4.343390212584E-01 1.611543077017E-01 3.640008245048E-01
H135 -2.479191524003E-01 3.943508632215E-01 2.650387406693E-01
H136 5.911522219653E-02 -3.683570366141E-01 -4.698946002616E-01
C137 -1.611543077017E-01 4.343390212584E-01 -3.640008245048E-01
H138 -3.943508632215E-01 2.479191524003E-01 -2.650387406693E-01
H139 -3.983106994290E-01 1.203142105166E-01 3.403906643583E-01
H140 -1.203142105166E-01 3.983106994290E-01 -3.403906643583E-01


#===END
