###############################################################
#
#primitive cell cif file
#
###############################################################

posm8_data

_symmetry_space_group_name_H-M 'P 1'
_cell_length_a      13.86596031
_cell_length_b      13.86596031
_cell_length_c      14.21100000
_cell_angle_alpha   90.000000
_cell_angle_beta    90.000000
_cell_angle_gamma   150.032293

loop_
_atom_site_label
_atom_site_fract_x
_atom_site_fract_y
_atom_site_fract_z
C1 2.757613359999E-02 -2.757613359999E-02 0.000000000000E+00
C2 -8.826757950431E-02 -1.951778226935E-01 5.025311681345E-02
C3 1.951778226935E-01 8.826757950431E-02 -5.025311681345E-02
C4 -2.724208954205E-02 2.724208954205E-02 0.000000000000E+00
C5 -2.649522553531E-01 -3.194104877169E-01 8.904737892963E-02
C6 -2.140965145836E-02 -2.367745389447E-01 7.515301404722E-02
C7 3.194104877169E-01 2.649522553531E-01 -8.904737892963E-02
C8 2.367745389447E-01 2.140965145836E-02 -7.515301404722E-02
C9 9.088008074936E-02 1.967421466166E-01 -4.897709852678E-02
C10 -1.967421466166E-01 -9.088008074936E-02 4.897709852678E-02
C11 -3.198502612444E-01 -2.668333506865E-01 8.804707343107E-02
C12 -3.902127805431E-01 -4.945574142161E-01 1.362257083421E-01
C13 -1.046664422060E-01 -3.914048345226E-01 3.584421105622E-02
C14 1.133118682340E-01 -1.318351003271E-01 1.474725860731E-01
C15 2.668333506865E-01 3.198502612444E-01 -8.804707343107E-02
C16 4.945574142161E-01 3.902127805431E-01 -1.362257083421E-01
C17 3.914048345226E-01 1.046664422060E-01 -3.584421105622E-02
C18 1.318351003271E-01 -1.133118682340E-01 -1.474725860731E-01
C19 3.009577442873E-02 2.452331995308E-01 -7.138961664337E-02
C20 -2.452331995308E-01 -3.009577442873E-02 7.138961664337E-02
C21 -4.970562387935E-01 -3.937781773962E-01 1.332957009586E-01
H22 -3.492090584804E-01 4.659609074592E-01 1.398473645527E-01
C23 4.418113742071E-01 3.885573379031E-01 1.768828765781E-01
H24 -2.085640315373E-01 -4.735451876100E-01 -2.066668062402E-02
C25 -5.625605404635E-02 -4.406697847230E-01 6.851390101070E-02
H26 1.775442632061E-01 -1.289575479970E-02 1.791519359376E-01
C27 1.645149886188E-01 -1.786740200749E-01 1.796043665247E-01
C28 3.937781773962E-01 4.970562387935E-01 -1.332957009586E-01
H29 -4.659609074592E-01 3.492090584804E-01 -1.398473645527E-01
C30 -3.885573379031E-01 -4.418113742071E-01 -1.768828765781E-01
H31 4.735451876100E-01 2.085640315373E-01 2.066668062402E-02
C32 4.406697847230E-01 5.625605404635E-02 -6.851390101070E-02
H33 1.289575479970E-02 -1.775442632061E-01 -1.791519359376E-01
C34 1.786740200749E-01 -1.645149886188E-01 -1.796043665247E-01
C35 1.055288304167E-01 3.901254014110E-01 -2.363047387559E-02
C36 -8.918441699764E-02 1.583666044052E-01 -1.490521709956E-01
C37 -3.901254014110E-01 -1.055288304167E-01 2.363047387559E-02
C38 -1.583666044052E-01 8.918441699764E-02 1.490521709956E-01
H39 4.617203757225E-01 -3.544140729507E-01 1.341643953363E-01
C40 3.868503594032E-01 4.393610589440E-01 1.751077994339E-01
H41 3.508174547693E-01 2.580709585997E-01 2.125683001887E-01
H42 -1.243558109311E-01 4.371400778446E-01 3.824873252987E-02
C43 7.935770573065E-02 -3.340002896433E-01 1.402954514430E-01
H44 2.699119834868E-01 -9.429232350051E-02 2.356889868978E-01
H45 3.544140729507E-01 -4.617203757225E-01 -1.341643953363E-01
C46 -4.393610589440E-01 -3.868503594032E-01 -1.751077994339E-01
H47 -2.580709585997E-01 -3.508174547693E-01 -2.125683001887E-01
H48 -4.371400778446E-01 1.243558109311E-01 -3.824873252987E-02
C49 3.340002896433E-01 -7.935770573065E-02 -1.402954514430E-01
H50 9.429232350051E-02 -2.699119834868E-01 -2.356889868978E-01
H51 1.978889681637E-01 4.586634713612E-01 3.681969338287E-02
C52 6.349615412612E-02 4.468815872418E-01 -5.297157008944E-02
H53 -1.476822859626E-01 4.669459679470E-02 -1.871244656795E-01
C54 -1.337952683257E-01 2.129261499938E-01 -1.779508443566E-01
H55 -4.586634713612E-01 -1.978889681637E-01 -3.681969338287E-02
C56 -4.468815872418E-01 -6.349615412612E-02 5.297157008944E-02
H57 -4.669459679470E-02 1.476822859626E-01 1.871244656795E-01
C58 -2.129261499938E-01 1.337952683257E-01 1.779508443566E-01
H59 2.537873284835E-01 3.458832388554E-01 2.086729390993E-01
H60 1.169624101236E-01 -3.728811360368E-01 1.651964254739E-01
H61 -3.458832388554E-01 -2.537873284835E-01 -2.086729390993E-01
H62 3.728811360368E-01 -1.169624101236E-01 -1.651964254739E-01
H63 1.240205204930E-01 -4.397929512966E-01 -1.546172966885E-02
C64 -5.671728676688E-02 3.583728309457E-01 -1.300746401811E-01
H65 -2.293038842207E-01 1.407724968481E-01 -2.375836916582E-01
H66 4.397929512966E-01 -1.240205204930E-01 1.546172966885E-02
C67 -3.583728309457E-01 5.671728676688E-02 1.300746401811E-01
H68 -1.407724968481E-01 2.293038842207E-01 2.375836916582E-01
H69 -8.954172907179E-02 4.029477576104E-01 -1.523089858041E-01
H70 -4.029477576104E-01 8.954172907179E-02 1.523089858041E-01
C71 4.727579104579E-01 -4.727579104579E-01 -5.000000000000E-01
C72 -4.091199192506E-01 -3.032578533834E-01 -4.510229014732E-01
C73 3.032578533834E-01 4.091199192506E-01 4.510229014732E-01
C74 -4.724238664000E-01 4.724238664000E-01 -5.000000000000E-01
C75 -2.331666493135E-01 -1.801497387556E-01 -4.119529265689E-01
C76 -4.699042255713E-01 -2.547668004692E-01 -4.286103833566E-01
C77 1.801497387556E-01 2.331666493135E-01 4.119529265689E-01
C78 2.547668004692E-01 4.699042255713E-01 4.286103833566E-01
C79 4.117324204957E-01 3.048221773065E-01 4.497468831865E-01
C80 -3.048221773065E-01 -4.117324204957E-01 -4.497468831865E-01
C81 -1.805895122831E-01 -2.350477446469E-01 -4.109526210704E-01
C82 -1.062218226038E-01 -2.943761206478E-03 -3.667042990414E-01
C83 -3.944711695833E-01 -1.098745985890E-01 -4.763695261244E-01
C84 4.108155830024E-01 -3.416333955948E-01 -3.509478290044E-01
C85 2.350477446469E-01 1.805895122831E-01 4.109526210704E-01
C86 2.943761206478E-03 1.062218226038E-01 3.667042990414E-01
C87 1.098745985890E-01 3.944711695833E-01 4.763695261244E-01
C88 3.416333955948E-01 -4.108155830024E-01 3.509478290044E-01
C89 4.785903485416E-01 2.632254610553E-01 4.248469859528E-01
C90 -2.632254610553E-01 -4.785903485416E-01 -4.248469859528E-01
C91 -5.442585783863E-03 -1.097872194569E-01 -3.637742916579E-01
H92 -1.455859270493E-01 3.827962427749E-02 -3.658356046637E-01
C93 6.063894105597E-02 1.131496405968E-01 -3.248922005661E-01
H94 -3.021110318363E-01 -4.133652863876E-02 4.631803066171E-01
C95 -4.365038458739E-01 -5.311841275820E-02 -4.470284299106E-01
H96 3.523177140374E-01 -4.533054032053E-01 -3.128755343205E-01
C97 3.662047316743E-01 -2.870738500062E-01 -3.220491556434E-01
C98 1.097872194569E-01 5.442585783863E-03 3.637742916579E-01
H99 -3.827962427749E-02 1.455859270493E-01 3.658356046637E-01
C100 -1.131496405968E-01 -6.063894105597E-02 3.248922005661E-01
H101 4.133652863876E-02 3.021110318363E-01 -4.631803066171E-01
C102 5.311841275820E-02 4.365038458739E-01 4.470284299106E-01
H103 4.533054032053E-01 -3.523177140374E-01 3.128755343205E-01
C104 2.870738500062E-01 -3.662047316743E-01 3.220491556434E-01
C105 3.953335577940E-01 1.085951654774E-01 4.641557889438E-01
C106 -3.866881317660E-01 3.681648996729E-01 3.525274139269E-01
C107 -1.085951654774E-01 -3.953335577940E-01 -4.641557889438E-01
C108 -3.681648996729E-01 3.866881317660E-01 -3.525274139269E-01
H109 3.403909254076E-02 -1.507909415196E-01 -3.601526354473E-01
C110 1.114426620969E-01 5.818862579294E-02 -3.231171234219E-01
H111 1.541167611446E-01 2.462126715165E-01 -2.913270609007E-01
H112 -3.759794795070E-01 6.020704870342E-02 -4.845382703312E-01
C113 4.432827132331E-01 -1.416271690543E-01 -3.699253598189E-01
H114 2.706961157793E-01 -3.592275031519E-01 -2.624163083418E-01
H115 1.507909415196E-01 -3.403909254076E-02 3.601526354473E-01
C116 -5.818862579294E-02 -1.114426620969E-01 3.231171234219E-01
H117 -2.462126715165E-01 -1.541167611446E-01 2.913270609007E-01
H118 -6.020704870342E-02 3.759794795070E-01 4.845382703312E-01
C119 1.416271690543E-01 -4.432827132331E-01 3.699253598189E-01
H120 3.592275031519E-01 -2.706961157793E-01 2.624163083418E-01
H121 2.914359684627E-01 2.645481239004E-02 -4.793333193760E-01
C122 4.437439459537E-01 5.933021527703E-02 4.314860989893E-01
H123 -3.224557367939E-01 4.871042452003E-01 3.208480640624E-01
C124 -3.354850113812E-01 3.213259799251E-01 3.203956334753E-01
H125 -2.645481239004E-02 -2.914359684627E-01 4.793333193760E-01
C126 -5.933021527703E-02 -4.437439459537E-01 -4.314860989893E-01
H127 -4.871042452003E-01 3.224557367939E-01 -3.208480640624E-01
C128 -3.213259799251E-01 3.354850113812E-01 -3.203956334753E-01
H129 2.419290414003E-01 1.491825452307E-01 -2.874316998113E-01
H130 4.104582709282E-01 -9.705224238957E-02 -3.476910141959E-01
H131 -1.491825452307E-01 -2.419290414003E-01 2.874316998113E-01
H132 9.705224238957E-02 -4.104582709282E-01 3.476910141959E-01
H133 3.756441890689E-01 -6.285992215535E-02 4.617512674701E-01
C134 -4.206422942693E-01 1.659997103567E-01 3.597045485570E-01
H135 -2.300880165132E-01 4.057076764995E-01 2.643110131022E-01
H136 6.285992215535E-02 -3.756441890689E-01 -4.617512674701E-01
C137 -1.659997103567E-01 4.206422942693E-01 -3.597045485570E-01
H138 -4.057076764995E-01 2.300880165132E-01 -2.643110131022E-01
H139 -3.830375898764E-01 1.271188639632E-01 3.348035745261E-01
H140 -1.271188639632E-01 3.830375898764E-01 -3.348035745261E-01


#===END
