###############################################################
#
#primitive cell cif file
#
###############################################################

posm32_data

_symmetry_space_group_name_H-M 'P 1'
_cell_length_a      13.86596031
_cell_length_b      13.86596031
_cell_length_c      14.21100000
_cell_angle_alpha   90.000000
_cell_angle_beta    90.000000
_cell_angle_gamma   150.032293

loop_
_atom_site_label
_atom_site_fract_x
_atom_site_fract_y
_atom_site_fract_z
C1 2.741994163074E-02 -2.741994163074E-02 0.000000000000E+00
C2 -8.959903381054E-02 -1.960389106045E-01 4.948142954943E-02
C3 1.960389106045E-01 8.959903381054E-02 -4.948142954943E-02
C4 -2.741994163074E-02 2.741994163074E-02 0.000000000000E+00
C5 -2.654842004537E-01 -3.192239114394E-01 8.880361022440E-02
C6 -2.594731062493E-02 -2.412237002484E-01 7.345705393019E-02
C7 3.192239114394E-01 2.654842004537E-01 -8.880361022440E-02
C8 2.412237002484E-01 2.594731062493E-02 -7.345705393019E-02
C9 8.959903381054E-02 1.960389106045E-01 -4.948142954943E-02
C10 -1.960389106045E-01 -8.959903381054E-02 4.948142954943E-02
C11 -3.192239114394E-01 -2.654842004537E-01 8.880361022440E-02
C12 -3.906074792241E-01 -4.943839967943E-01 1.358664855525E-01
C13 -1.057898559816E-01 -3.917240056937E-01 3.064503132207E-02
C14 1.003329514713E-01 -1.454470900755E-01 1.488315969270E-01
C15 2.654842004537E-01 3.192239114394E-01 -8.880361022440E-02
C16 4.943839967943E-01 3.906074792241E-01 -1.358664855525E-01
C17 3.917240056937E-01 1.057898559816E-01 -3.064503132207E-02
C18 1.454470900755E-01 -1.003329514713E-01 -1.488315969270E-01
C19 2.594731062493E-02 2.412237002484E-01 -7.345705393019E-02
C20 -2.412237002484E-01 -2.594731062493E-02 7.345705393019E-02
C21 -4.943839967943E-01 -3.906074792241E-01 1.358664855525E-01
H22 -3.506645187571E-01 4.650277547911E-01 1.379389815463E-01
C23 4.434227858591E-01 3.905512822572E-01 1.783695072911E-01
H24 -2.031773978778E-01 -4.668841078095E-01 -2.821606054366E-02
C25 -6.241530919786E-02 -4.461106564579E-01 6.303248187897E-02
H26 1.625423850851E-01 -2.916483702345E-02 1.829210296991E-01
C27 1.459688796298E-01 -1.978543281944E-01 1.808839354819E-01
C28 3.906074792241E-01 4.943839967943E-01 -1.358664855525E-01
H29 -4.650277547911E-01 3.506645187571E-01 -1.379389815463E-01
C30 -3.905512822572E-01 -4.434227858591E-01 -1.783695072911E-01
H31 4.668841078095E-01 2.031773978778E-01 2.821606054366E-02
C32 4.461106564579E-01 6.241530919786E-02 -6.303248187897E-02
H33 2.916483702345E-02 -1.625423850851E-01 -1.829210296991E-01
C34 1.978543281944E-01 -1.459688796298E-01 -1.808839354819E-01
C35 1.057898559816E-01 3.917240056937E-01 -3.064503132207E-02
C36 -1.003329514713E-01 1.454470900755E-01 -1.488315969270E-01
C37 -3.917240056937E-01 -1.057898559816E-01 3.064503132207E-02
C38 -1.454470900755E-01 1.003329514713E-01 1.488315969270E-01
H39 4.650277547911E-01 -3.506645187571E-01 1.379389815463E-01
C40 3.905512822572E-01 4.434227858591E-01 1.783695072911E-01
H41 3.523311708478E-01 2.598422036582E-01 2.138307051461E-01
H42 -1.267882665647E-01 4.357523766952E-01 2.970071972479E-02
C43 6.391735952357E-02 -3.493281421919E-01 1.382171989528E-01
H44 2.455079785535E-01 -1.199835224339E-01 2.391655654865E-01
H45 3.506645187571E-01 -4.650277547911E-01 -1.379389815463E-01
C46 -4.434227858591E-01 -3.905512822572E-01 -1.783695072911E-01
H47 -2.598422036582E-01 -3.523311708478E-01 -2.138307051461E-01
H48 -4.357523766952E-01 1.267882665647E-01 -2.970071972479E-02
C49 3.493281421919E-01 -6.391735952357E-02 -1.382171989528E-01
H50 1.199835224339E-01 -2.455079785535E-01 -2.391655654865E-01
H51 2.031773978778E-01 4.668841078095E-01 2.821606054366E-02
C52 6.241530919786E-02 4.461106564579E-01 -6.303248187897E-02
H53 -1.625423850851E-01 2.916483702345E-02 -1.829210296991E-01
C54 -1.459688796298E-01 1.978543281944E-01 -1.808839354819E-01
H55 -4.668841078095E-01 -2.031773978778E-01 -2.821606054366E-02
C56 -4.461106564579E-01 -6.241530919786E-02 6.303248187897E-02
H57 -2.916483702345E-02 1.625423850851E-01 1.829210296991E-01
C58 -1.978543281944E-01 1.459688796298E-01 1.808839354819E-01
H59 2.598422036582E-01 3.523311708478E-01 2.138307051461E-01
H60 9.745617062654E-02 -3.923303161998E-01 1.628218403140E-01
H61 -3.523311708478E-01 -2.598422036582E-01 -2.138307051461E-01
H62 3.923303161998E-01 -9.745617062654E-02 -1.628218403140E-01
H63 1.267882665647E-01 -4.357523766952E-01 -2.970071972479E-02
C64 -6.391735952357E-02 3.493281421919E-01 -1.382171989528E-01
H65 -2.455079785535E-01 1.199835224339E-01 -2.391655654865E-01
H66 4.357523766952E-01 -1.267882665647E-01 2.970071972479E-02
C67 -3.493281421919E-01 6.391735952357E-02 1.382171989528E-01
H68 -1.199835224339E-01 2.455079785535E-01 2.391655654865E-01
H69 -9.745617062654E-02 3.923303161998E-01 -1.628218403140E-01
H70 -3.923303161998E-01 9.745617062654E-02 1.628218403140E-01
C71 4.725800583693E-01 -4.725800583693E-01 -5.000000000000E-01
C72 -4.104009661895E-01 -3.039610893955E-01 -4.505185704506E-01
C73 3.039610893955E-01 4.104009661895E-01 4.505185704506E-01
C74 -4.725800583693E-01 4.725800583693E-01 -5.000000000000E-01
C75 -2.345157995463E-01 -1.807760885606E-01 -4.111963897756E-01
C76 -4.740526893751E-01 -2.587762997516E-01 -4.265429460698E-01
C77 1.807760885606E-01 2.345157995463E-01 4.111963897756E-01
C78 2.587762997516E-01 4.740526893751E-01 4.265429460698E-01
C79 4.104009661895E-01 3.039610893955E-01 4.505185704506E-01
C80 -3.039610893955E-01 -4.104009661895E-01 -4.505185704506E-01
C81 -1.807760885606E-01 -2.345157995463E-01 -4.111963897756E-01
C82 -1.093925207759E-01 -5.616003205734E-03 -3.641335144475E-01
C83 -3.942101440184E-01 -1.082759943063E-01 -4.693549686779E-01
C84 3.996670485287E-01 -3.545529099245E-01 -3.511684030730E-01
C85 2.345157995463E-01 1.807760885606E-01 4.111963897756E-01
C86 5.616003205734E-03 1.093925207759E-01 3.641335144475E-01
C87 1.082759943063E-01 3.942101440184E-01 4.693549686779E-01
C88 3.545529099245E-01 -3.996670485287E-01 3.511684030730E-01
C89 4.740526893751E-01 2.587762997516E-01 4.265429460698E-01
C90 -2.587762997516E-01 -4.740526893751E-01 -4.265429460698E-01
C91 -5.616003205734E-03 -1.093925207759E-01 -3.641335144475E-01
H92 -1.493354812429E-01 3.497224520886E-02 -3.620610184537E-01
C93 5.657721414088E-02 1.094487177428E-01 -3.216304927089E-01
H94 -2.968226021222E-01 -3.311589219046E-02 4.717839394563E-01
C95 -4.375846908021E-01 -5.388934354207E-02 -4.369675181210E-01
H96 3.374576149149E-01 -4.708351629765E-01 -3.170789703009E-01
C97 3.540311203702E-01 -3.021456718056E-01 -3.191160645181E-01
C98 1.093925207759E-01 5.616003205734E-03 3.641335144475E-01
H99 -3.497224520886E-02 1.493354812429E-01 3.620610184537E-01
C100 -1.094487177428E-01 -5.657721414088E-02 3.216304927089E-01
H101 3.311589219046E-02 2.968226021222E-01 -4.717839394563E-01
C102 5.388934354207E-02 4.375846908021E-01 4.369675181210E-01
H103 4.708351629765E-01 -3.374576149149E-01 3.170789703009E-01
C104 3.021456718056E-01 -3.540311203702E-01 3.191160645181E-01
C105 3.942101440184E-01 1.082759943063E-01 4.693549686779E-01
C106 -3.996670485287E-01 3.545529099245E-01 3.511684030730E-01
C107 -1.082759943063E-01 -3.942101440184E-01 -4.693549686779E-01
C108 -3.545529099245E-01 3.996670485287E-01 -3.511684030730E-01
H109 3.497224520886E-02 -1.493354812429E-01 -3.620610184537E-01
C110 1.094487177428E-01 5.657721414088E-02 -3.216304927089E-01
H111 1.476688291522E-01 2.401577963418E-01 -2.861692948539E-01
H112 -3.732117334353E-01 6.424762330481E-02 -4.702992802752E-01
C113 4.360826404764E-01 -1.506718578081E-01 -3.617828010472E-01
H114 2.544920214465E-01 -3.800164775661E-01 -2.608344345135E-01
H115 1.493354812429E-01 -3.497224520886E-02 3.620610184537E-01
C116 -5.657721414088E-02 -1.094487177428E-01 3.216304927089E-01
H117 -2.401577963418E-01 -1.476688291522E-01 2.861692948539E-01
H118 -6.424762330481E-02 3.732117334353E-01 4.702992802752E-01
C119 1.506718578081E-01 -4.360826404764E-01 3.617828010472E-01
H120 3.800164775661E-01 -2.544920214465E-01 2.608344345135E-01
H121 2.968226021222E-01 3.311589219046E-02 -4.717839394563E-01
C122 4.375846908021E-01 5.388934354207E-02 4.369675181210E-01
H123 -3.374576149149E-01 4.708351629765E-01 3.170789703009E-01
C124 -3.540311203702E-01 3.021456718056E-01 3.191160645181E-01
H125 -3.311589219046E-02 -2.968226021222E-01 4.717839394563E-01
C126 -5.388934354207E-02 -4.375846908021E-01 -4.369675181210E-01
H127 -4.708351629765E-01 3.374576149149E-01 -3.170789703009E-01
C128 -3.021456718056E-01 3.540311203702E-01 -3.191160645181E-01
H129 2.401577963418E-01 1.476688291522E-01 -2.861692948539E-01
H130 4.025438293735E-01 -1.076696838002E-01 -3.371781596860E-01
H131 -1.476688291522E-01 -2.401577963418E-01 2.861692948539E-01
H132 1.076696838002E-01 -4.025438293735E-01 3.371781596860E-01
H133 3.732117334353E-01 -6.424762330481E-02 4.702992802752E-01
C134 -4.360826404764E-01 1.506718578081E-01 3.617828010472E-01
H135 -2.544920214465E-01 3.800164775661E-01 2.608344345135E-01
H136 6.424762330481E-02 -3.732117334353E-01 -4.702992802752E-01
C137 -1.506718578081E-01 4.360826404764E-01 -3.617828010472E-01
H138 -3.800164775661E-01 2.544920214465E-01 -2.608344345135E-01
H139 -4.025438293735E-01 1.076696838002E-01 3.371781596860E-01
H140 -1.076696838002E-01 4.025438293735E-01 -3.371781596860E-01


#===END
