###############################################################
#
#primitive cell cif file
#
###############################################################

posm9_data

_symmetry_space_group_name_H-M 'P 1'
_cell_length_a      13.86596031
_cell_length_b      13.86596031
_cell_length_c      14.21100000
_cell_angle_alpha   90.000000
_cell_angle_beta    90.000000
_cell_angle_gamma   150.032293

loop_
_atom_site_label
_atom_site_fract_x
_atom_site_fract_y
_atom_site_fract_z
C1 2.470004577562E-02 -3.011817736642E-02 7.026504292450E-05
C2 -9.591949001792E-02 -2.002599860995E-01 4.964397155647E-02
C3 1.916599832106E-01 8.322817023575E-02 -4.958624378376E-02
C4 -2.470004577562E-02 3.011817736642E-02 -7.026504292450E-05
C5 -2.708519956884E-01 -3.204869147306E-01 8.835217732404E-02
C6 -3.606044583268E-02 -2.492395512094E-01 7.374138126557E-02
C7 3.187738342306E-01 2.609336103512E-01 -8.874227503666E-02
C8 2.327681872661E-01 1.544498005441E-02 -7.280124942502E-02
C9 9.591949001792E-02 2.002599860995E-01 -4.964397155647E-02
C10 -1.916599832106E-01 -8.322817023575E-02 4.958624378376E-02
C11 -3.187738342306E-01 -2.609336103512E-01 8.874227503666E-02
C12 -4.010640400054E-01 -4.988539721047E-01 1.337509799252E-01
C13 -1.155909993088E-01 -3.987785871836E-01 2.962950631476E-02
C14 8.976056016771E-02 -1.548993354093E-01 1.490938532546E-01
C15 2.708519956884E-01 3.204869147306E-01 -8.835217732404E-02
C16 4.927596809049E-01 3.829269179339E-01 -1.357704293755E-01
C17 3.827516487500E-01 9.460427331388E-02 -2.984517861706E-02
C18 1.353023693230E-01 -1.127357250639E-01 -1.474309038142E-01
C19 3.606044583268E-02 2.492395512094E-01 -7.374138126557E-02
C20 -2.327681872661E-01 -1.544498005441E-02 7.280124942502E-02
C21 -4.927596809049E-01 -3.829269179339E-01 1.357704293755E-01
H22 -3.654438696037E-01 4.562366584355E-01 1.349414932326E-01
C23 4.332645794036E-01 3.881976698429E-01 1.752923178924E-01
H24 -2.127933038241E-01 -4.727756129829E-01 -2.909537609366E-02
C25 -7.050337583798E-02 -4.521738443592E-01 5.992415043206E-02
H26 1.514725749545E-01 -3.961836374644E-02 1.844204766576E-01
C27 1.369718728365E-01 -2.064549953191E-01 1.791039710374E-01
C28 4.010640400054E-01 4.988539721047E-01 -1.337509799252E-01
H29 -4.714446247462E-01 3.381792618274E-01 -1.390702666564E-01
C30 -3.872100274634E-01 -4.479078537474E-01 -1.766983581196E-01
H31 4.594330459883E-01 1.936596958770E-01 2.839099791324E-02
C32 4.353775276055E-01 4.924883233449E-02 -6.156132066807E-02
H33 1.997198784797E-02 -1.737539742142E-01 -1.818559249595E-01
C34 1.851451747496E-01 -1.613383841080E-01 -1.784512398439E-01
C35 1.155909993088E-01 3.987785871836E-01 -2.962950631476E-02
C36 -8.976056016771E-02 1.548993354093E-01 -1.490938532546E-01
C37 -3.827516487500E-01 -9.460427331388E-02 2.984517861706E-02
C38 -1.353023693230E-01 1.127357250639E-01 1.474309038142E-01
H39 4.714446247462E-01 -3.381792618274E-01 1.390702666564E-01
C40 3.872100274634E-01 4.479078537474E-01 1.766983581196E-01
H41 3.371821848552E-01 2.540890329987E-01 2.088927418105E-01
H42 -1.334549422939E-01 4.314223518361E-01 2.509791883865E-02
C43 5.659510368766E-02 -3.558244778620E-01 1.345883693271E-01
H44 2.371379008097E-01 -1.288573527335E-01 2.369896945614E-01
H45 3.654438696037E-01 -4.562366584355E-01 -1.349414932326E-01
C46 -4.332645794036E-01 -3.881976698429E-01 -1.752923178924E-01
H47 -2.577692540846E-01 -3.595185087695E-01 -2.123484974775E-01
H48 -4.455106773051E-01 1.149213891302E-01 -2.861254336007E-02
C49 3.365486427270E-01 -7.947988880987E-02 -1.357817222970E-01
H50 1.062074676151E-01 -2.620779668979E-01 -2.362829839945E-01
H51 2.127933038241E-01 4.727756129829E-01 2.909537609366E-02
C52 7.050337583798E-02 4.521738443592E-01 -5.992415043206E-02
H53 -1.514725749545E-01 3.961836374644E-02 -1.844204766576E-01
C54 -1.369718728365E-01 2.064549953191E-01 -1.791039710374E-01
H55 -4.594330459883E-01 -1.936596958770E-01 -2.839099791324E-02
C56 -4.353775276055E-01 -4.924883233449E-02 6.156132066807E-02
H57 -1.997198784797E-02 1.737539742142E-01 1.818559249595E-01
C58 -1.851451747496E-01 1.613383841080E-01 1.784512398439E-01
H59 2.577692540846E-01 3.595185087695E-01 2.123484974775E-01
H60 9.201804536621E-02 -3.975435068209E-01 1.575655368830E-01
H61 -3.371821848552E-01 -2.540890329987E-01 -2.088927418105E-01
H62 3.782853868264E-01 -1.144860938291E-01 -1.599398743950E-01
H63 1.334549422939E-01 -4.314223518361E-01 -2.509791883865E-02
C64 -5.659510368766E-02 3.558244778620E-01 -1.345883693271E-01
H65 -2.371379008097E-01 1.288573527335E-01 -2.369896945614E-01
H66 4.455106773051E-01 -1.149213891302E-01 2.861254336007E-02
C67 -3.365486427270E-01 7.947988880987E-02 1.357817222970E-01
H68 -1.062074676151E-01 2.620779668979E-01 2.362829839945E-01
H69 -9.201804536621E-02 3.975435068209E-01 -1.575655368830E-01
H70 -3.782853868264E-01 1.144860938291E-01 1.599398743950E-01
C71 4.752999542244E-01 -4.698818226336E-01 -4.999297349571E-01
C72 -4.040805099821E-01 -2.997400139005E-01 -4.503560284435E-01
C73 3.083400167894E-01 4.167718297642E-01 4.504137562162E-01
C74 -4.752999542244E-01 4.698818226336E-01 4.999297349571E-01
C75 -2.291480043116E-01 -1.795130852694E-01 -4.116478226760E-01
C76 -4.639395541673E-01 -2.507604487906E-01 -4.262586187344E-01
C77 1.812261657694E-01 2.390663896488E-01 4.112577249633E-01
C78 2.672318127339E-01 4.845550199456E-01 4.271987505750E-01
C79 4.040805099821E-01 2.997400139005E-01 4.503560284435E-01
C80 -3.083400167894E-01 -4.167718297642E-01 -4.504137562162E-01
C81 -1.812261657694E-01 -2.390663896488E-01 -4.112577249633E-01
C82 -9.893595999456E-02 -1.146027895262E-03 -3.662490200748E-01
C83 -3.844090006912E-01 -1.012214128164E-01 -4.703704936852E-01
C84 4.102394398323E-01 -3.451006645907E-01 -3.509061467454E-01
C85 2.291480043116E-01 1.795130852694E-01 4.116478226760E-01
C86 7.240319095079E-03 1.170730820661E-01 3.642295706245E-01
C87 1.172483512500E-01 4.053957266861E-01 4.701548213829E-01
C88 3.646976306770E-01 -3.872642749361E-01 3.525690961858E-01
C89 4.639395541673E-01 2.507604487906E-01 4.262586187344E-01
C90 -2.672318127339E-01 -4.845550199456E-01 -4.271987505750E-01
C91 -7.240319095078E-03 -1.170730820661E-01 -3.642295706245E-01
H92 -1.345561303963E-01 4.376334156450E-02 -3.650585067674E-01
C93 6.673542059635E-02 1.118023301571E-01 -3.247076821076E-01
H94 -2.872066961759E-01 -2.722438701710E-02 4.709046239063E-01
C95 -4.294966241620E-01 -4.782615564077E-02 -4.400758495679E-01
H96 3.485274250455E-01 -4.603816362536E-01 -3.155795233424E-01
C97 3.630281271635E-01 -2.935450046809E-01 -3.208960289626E-01
C98 9.893595999456E-02 1.146027895262E-03 3.662490200748E-01
H99 -2.855537525375E-02 1.618207381726E-01 3.609297333436E-01
C100 -1.127899725366E-01 -5.209214625256E-02 3.233016418804E-01
H101 4.056695401171E-02 3.063403041230E-01 -4.716090020868E-01
C102 6.462247239446E-02 4.507511676655E-01 4.384386793319E-01
H103 4.800280121520E-01 -3.262460257858E-01 3.181440750405E-01
C104 3.148548252504E-01 -3.386616158920E-01 3.215487601561E-01
C105 3.844090006912E-01 1.012214128164E-01 4.703704936852E-01
C106 -4.102394398323E-01 3.451006645907E-01 3.509061467454E-01
C107 -1.172483512500E-01 -4.053957266861E-01 -4.701548213829E-01
C108 -3.646976306770E-01 3.872642749361E-01 -3.525690961858E-01
H109 2.855537525375E-02 -1.618207381726E-01 -3.609297333436E-01
C110 1.127899725366E-01 5.209214625256E-02 -3.233016418804E-01
H111 1.628178151448E-01 2.459109670013E-01 -2.911072581895E-01
H112 -3.665450577061E-01 6.857764816388E-02 -4.749020811614E-01
C113 4.434048963123E-01 -1.441755221380E-01 -3.654116306729E-01
H114 2.628620991903E-01 -3.711426472665E-01 -2.630103054386E-01
H115 1.345561303963E-01 -4.376334156450E-02 3.650585067674E-01
C116 -6.673542059635E-02 -1.118023301571E-01 3.247076821076E-01
H117 -2.422307459154E-01 -1.404814912305E-01 2.876515025225E-01
H118 -5.448932269489E-02 3.850786108698E-01 4.713874566399E-01
C119 1.634513572730E-01 -4.205201111901E-01 3.642182777030E-01
H120 3.937925323849E-01 -2.379220331021E-01 2.637170160055E-01
H121 2.872066961759E-01 2.722438701710E-02 -4.709046239063E-01
C122 4.294966241620E-01 4.782615564077E-02 4.400758495679E-01
H123 -3.485274250455E-01 4.603816362536E-01 3.155795233424E-01
C124 -3.630281271635E-01 2.935450046809E-01 3.208960289626E-01
H125 -4.056695401171E-02 -3.063403041230E-01 4.716090020868E-01
C126 -6.462247239446E-02 -4.507511676655E-01 -4.384386793319E-01
H127 -4.800280121520E-01 3.262460257858E-01 -3.181440750405E-01
C128 -3.148548252504E-01 3.386616158920E-01 -3.215487601561E-01
H129 2.422307459154E-01 1.404814912305E-01 -2.876515025225E-01
H130 4.079819546338E-01 -1.024564931791E-01 -3.424344631170E-01
H131 -1.628178151448E-01 -2.459109670013E-01 2.911072581895E-01
H132 1.217146131736E-01 -3.855139061709E-01 3.400601256050E-01
H133 3.665450577061E-01 -6.857764816388E-02 4.749020811614E-01
C134 -4.434048963123E-01 1.441755221380E-01 3.654116306729E-01
H135 -2.628620991903E-01 3.711426472665E-01 2.630103054386E-01
H136 5.448932269489E-02 -3.850786108698E-01 -4.713874566399E-01
C137 -1.634513572730E-01 4.205201111901E-01 -3.642182777030E-01
H138 -3.937925323849E-01 2.379220331021E-01 -2.637170160055E-01
H139 -4.079819546338E-01 1.024564931791E-01 3.424344631170E-01
H140 -1.217146131736E-01 3.855139061709E-01 -3.400601256050E-01


#===END
