###############################################################
#
#primitive cell cif file
#
###############################################################

posm39_data

_symmetry_space_group_name_H-M 'P 1'
_cell_length_a      13.86596031
_cell_length_b      13.86596031
_cell_length_c      14.21100000
_cell_angle_alpha   90.000000
_cell_angle_beta    90.000000
_cell_angle_gamma   150.032293

loop_
_atom_site_label
_atom_site_fract_x
_atom_site_fract_y
_atom_site_fract_z
C1 2.731860761286E-02 -2.749961552918E-02 -1.257504517627E-05
C2 -9.011226581604E-02 -1.958588023650E-01 4.979343524003E-02
C3 1.960611669451E-01 8.903539443763E-02 -4.943678010020E-02
C4 -2.731860761286E-02 2.749961552918E-02 1.257504517627E-05
C5 -2.662159626948E-01 -3.191428851038E-01 8.869613702695E-02
C6 -2.622702801967E-02 -2.406437156757E-01 7.340130499472E-02
C7 3.201178638575E-01 2.655696433448E-01 -8.839831533376E-02
C8 2.413640227998E-01 2.527839786741E-02 -7.314132569587E-02
C9 9.011226581604E-02 1.958588023650E-01 -4.979343524003E-02
C10 -1.960611669451E-01 -8.903539443763E-02 4.943678010020E-02
C11 -3.201178638575E-01 -2.655696433448E-01 8.839831533376E-02
C12 -3.919302004279E-01 -4.950697664045E-01 1.350166769088E-01
C13 -1.017088278307E-01 -3.868765640036E-01 2.804306926402E-02
C14 9.766139449241E-02 -1.473805538073E-01 1.495949902692E-01
C15 2.662159626948E-01 3.191428851038E-01 -8.869613702695E-02
C16 4.965438866052E-01 3.920607575114E-01 -1.345047323919E-01
C17 3.946536719300E-01 1.084864447919E-01 -3.143161566779E-02
C18 1.428211509250E-01 -1.048348907392E-01 -1.469297667996E-01
C19 2.622702801967E-02 2.406437156757E-01 -7.340130499472E-02
C20 -2.413640227998E-01 -2.527839786741E-02 7.314132569587E-02
C21 -4.965438866052E-01 -3.920607575114E-01 1.345047323919E-01
H22 -3.513262605126E-01 4.649939097128E-01 1.373255493429E-01
C23 4.404859589990E-01 3.881468140752E-01 1.761514449244E-01
H24 -1.973535102809E-01 -4.598878650192E-01 -3.139092964767E-02
C25 -5.537352117607E-02 -4.389457706253E-01 5.838039145697E-02
H26 1.559687141551E-01 -3.470353779029E-02 1.856715076323E-01
C27 1.463859253057E-01 -1.974189462948E-01 1.796082747894E-01
C28 3.919302004279E-01 4.950697664045E-01 -1.350166769088E-01
H29 -4.626873734689E-01 3.522968709186E-01 -1.366862105461E-01
C30 -3.872608832311E-01 -4.406864741521E-01 -1.758392310875E-01
H31 4.723207939520E-01 2.090994894201E-01 2.609544435923E-02
C32 4.486056013394E-01 6.437868699640E-02 -6.310507964316E-02
H33 2.488681380412E-02 -1.692578350136E-01 -1.806048939847E-01
C34 1.941812237739E-01 -1.519243316389E-01 -1.779469360919E-01
C35 1.017088278307E-01 3.868765640036E-01 -2.804306926402E-02
C36 -9.766139449241E-02 1.473805538073E-01 -1.495949902692E-01
C37 -3.946536719300E-01 -1.084864447919E-01 3.143161566779E-02
C38 -1.428211509250E-01 1.048348907392E-01 1.469297667996E-01
H39 4.626873734689E-01 -3.522968709186E-01 1.366862105461E-01
C40 3.872608832311E-01 4.406864741521E-01 1.758392310875E-01
H41 3.484512339771E-01 2.564902322419E-01 2.108274943444E-01
H42 -1.170889904243E-01 4.456440615908E-01 2.322021277771E-02
C43 6.940290549932E-02 -3.441572865679E-01 1.340876082543E-01
H44 2.444866253345E-01 -1.213059502500E-01 2.384209919169E-01
H45 3.513262605126E-01 -4.649939097128E-01 -1.373255493429E-01
C46 -4.404859589990E-01 -3.881468140752E-01 -1.761514449244E-01
H47 -2.553680548414E-01 -3.482494596476E-01 -2.104137449436E-01
H48 -4.312889675504E-01 1.312873409998E-01 -3.049024942101E-02
C49 3.482158340211E-01 -6.667208699821E-02 -1.362824833698E-01
H50 1.137588700986E-01 -2.547292423731E-01 -2.348516866390E-01
H51 1.973535102809E-01 4.598878650192E-01 3.139092964767E-02
C52 5.537352117607E-02 4.389457706253E-01 -5.838039145697E-02
H53 -1.559687141551E-01 3.470353779029E-02 -1.856715076323E-01
C54 -1.463859253057E-01 1.974189462948E-01 -1.796082747894E-01
H55 -4.723207939520E-01 -2.090994894201E-01 -2.609544435923E-02
C56 -4.486056013394E-01 -6.437868699640E-02 6.310507964316E-02
H57 -2.488681380412E-02 1.692578350136E-01 1.806048939847E-01
C58 -1.941812237739E-01 1.519243316389E-01 1.779469360919E-01
H59 2.553680548414E-01 3.482494596476E-01 2.104137449436E-01
H60 1.052195969386E-01 -3.854191615871E-01 1.572825161150E-01
H61 -3.484512339771E-01 -2.564902322419E-01 -2.108274943444E-01
H62 3.904097320601E-01 -1.012845422567E-01 -1.602228951630E-01
H63 1.170889904243E-01 -4.456440615908E-01 -2.322021277771E-02
C64 -6.940290549932E-02 3.441572865679E-01 -1.340876082543E-01
H65 -2.444866253345E-01 1.213059502500E-01 -2.384209919169E-01
H66 4.312889675504E-01 -1.312873409998E-01 3.049024942101E-02
C67 -3.482158340211E-01 6.667208699821E-02 1.362824833698E-01
H68 -1.137588700986E-01 2.547292423731E-01 2.348516866390E-01
H69 -1.052195969386E-01 3.854191615871E-01 -1.572825161150E-01
H70 -3.904097320601E-01 1.012845422567E-01 1.602228951630E-01
C71 4.725003844708E-01 -4.726813923871E-01 -4.999874249548E-01
C72 -4.109646055624E-01 -3.039388330549E-01 -4.505632198998E-01
C73 3.041411976350E-01 4.098877341840E-01 4.502065647600E-01
C74 -4.725003844708E-01 4.726813923871E-01 4.999874249548E-01
C75 -2.344303566552E-01 -1.798821361425E-01 -4.116016846662E-01
C76 -4.747216021326E-01 -2.586359772002E-01 -4.268586743041E-01
C77 1.808571148962E-01 2.337840373052E-01 4.113038629730E-01
C78 2.593562843243E-01 4.737729719803E-01 4.265986950053E-01
C79 4.109646055624E-01 3.039388330549E-01 4.505632198998E-01
C80 -3.041411976350E-01 -4.098877341840E-01 -4.502065647600E-01
C81 -1.808571148962E-01 -2.337840373052E-01 -4.113038629730E-01
C82 -1.079392424886E-01 -3.456113394798E-03 -3.654952676081E-01
C83 -3.915135552081E-01 -1.053463280700E-01 -4.685683843322E-01
C84 3.951651092608E-01 -3.571788490750E-01 -3.530702332004E-01
C85 2.344303566552E-01 1.798821361425E-01 4.116016846662E-01
C86 4.930233595543E-03 1.080697995721E-01 3.649833230912E-01
C87 1.131234359964E-01 3.982911721693E-01 4.719569307360E-01
C88 3.526194461927E-01 -4.023386055076E-01 3.504050097308E-01
C89 4.747216021326E-01 2.586359772002E-01 4.268586743041E-01
C90 -2.593562843243E-01 -4.737729719803E-01 -4.265986950053E-01
C91 -4.930233595543E-03 -1.080697995721E-01 -3.649833230912E-01
H92 -1.477031290814E-01 3.731262653109E-02 -3.633137894539E-01
C93 5.931352584788E-02 1.127391167689E-01 -3.241607689125E-01
H94 -2.909005105799E-01 -2.767920604802E-02 4.739045556408E-01
C95 -4.356213130036E-01 -5.139439866055E-02 -4.368949203568E-01
H96 3.307421649864E-01 -4.751131861959E-01 -3.193951060153E-01
C97 3.480756683611E-01 -3.058187762261E-01 -3.220530639081E-01
C98 1.079392424886E-01 3.456113394798E-03 3.654952676081E-01
H99 -3.500609028716E-02 1.486737394874E-01 3.626744506571E-01
C100 -1.118531859248E-01 -5.951404100103E-02 3.238485550756E-01
H101 4.011213498079E-02 3.026464897191E-01 -4.686090703523E-01
C102 6.105422937468E-02 4.446264788239E-01 4.416196085430E-01
H103 4.652964622097E-01 -3.440312858449E-01 3.143284923677E-01
C104 3.025810537052E-01 -3.536140746943E-01 3.203917252106E-01
C105 3.915135552081E-01 1.053463280700E-01 4.685683843322E-01
C106 -3.951651092608E-01 3.571788490750E-01 3.530702332004E-01
C107 -1.131234359964E-01 -3.982911721693E-01 -4.719569307360E-01
C108 -3.526194461927E-01 4.023386055076E-01 -3.504050097308E-01
H109 3.500609028717E-02 -1.486737394874E-01 -3.626744506571E-01
C110 1.118531859248E-01 5.951404100103E-02 -3.238485550756E-01
H111 1.517505403524E-01 2.446319451586E-01 -2.895862550564E-01
H112 -3.687126590002E-01 6.871103244961E-02 -4.695097505790E-01
C113 4.333279130018E-01 -1.517841659789E-01 -3.637175166302E-01
H114 2.452707576269E-01 -3.862411299014E-01 -2.651483133610E-01
H115 1.477031290814E-01 -3.731262653109E-02 3.633137894539E-01
C116 -5.931352584788E-02 -1.127391167689E-01 3.241607689125E-01
H117 -2.435097677581E-01 -1.515487660229E-01 2.891725056556E-01
H118 -5.435593840916E-02 3.829110095757E-01 4.767797872223E-01
C119 1.558427134321E-01 -4.305970945007E-01 3.659123917457E-01
H120 3.786940497500E-01 -2.555133746655E-01 2.615790080831E-01
H121 2.909005105799E-01 2.767920604802E-02 -4.739045556408E-01
C122 4.356213130036E-01 5.139439866055E-02 4.368949203568E-01
H123 -3.307421649864E-01 4.751131861959E-01 3.193951060153E-01
C124 -3.480756683611E-01 3.058187762261E-01 3.220530639081E-01
H125 -4.011213498079E-02 -3.026464897191E-01 4.686090703523E-01
C126 -6.105422937468E-02 -4.446264788239E-01 -4.416196085430E-01
H127 -4.652964622097E-01 3.440312858449E-01 -3.143284923677E-01
C128 -3.025810537052E-01 3.536140746943E-01 -3.203917252106E-01
H129 2.435097677581E-01 1.515487660229E-01 -2.891725056556E-01
H130 3.987154577433E-01 -1.095902679399E-01 -3.397771048370E-01
H131 -1.517505403524E-01 -2.446319451586E-01 2.895862550564E-01
H132 1.145808384129E-01 -3.947804030614E-01 3.427174838850E-01
H133 3.687126590002E-01 -6.871103244961E-02 4.695097505790E-01
C134 -4.333279130018E-01 1.517841659789E-01 3.637175166302E-01
H135 -2.452707576269E-01 3.862411299014E-01 2.651483133610E-01
H136 5.435593840916E-02 -3.829110095757E-01 -4.767797872223E-01
C137 -1.558427134321E-01 4.305970945007E-01 -3.659123917457E-01
H138 -3.786940497500E-01 2.555133746655E-01 -2.615790080831E-01
H139 -3.987154577433E-01 1.095902679399E-01 3.397771048370E-01
H140 -1.145808384129E-01 3.947804030614E-01 -3.427174838850E-01


#===END
