###############################################################
#
#primitive cell cif file
#
###############################################################

posm16_data

_symmetry_space_group_name_H-M 'P 1'
_cell_length_a      13.86596031
_cell_length_b      13.86596031
_cell_length_c      14.21100000
_cell_angle_alpha   90.000000
_cell_angle_beta    90.000000
_cell_angle_gamma   150.032293

loop_
_atom_site_label
_atom_site_fract_x
_atom_site_fract_y
_atom_site_fract_z
C1 2.905782491788E-02 -2.576039822416E-02 -7.387914453592E-04
C2 -8.552788168007E-02 -1.937505672630E-01 4.823575476103E-02
C3 1.981694020470E-01 9.361977857360E-02 -5.099446057920E-02
C4 -2.905782491788E-02 2.576039822416E-02 7.387914453592E-04
C5 -2.624586658504E-01 -3.197767614202E-01 8.786637688579E-02
C6 -1.995368126865E-02 -2.372798249632E-01 7.078406706791E-02
C7 3.194839875410E-01 2.693269401892E-01 -8.922807547491E-02
C8 2.447279135124E-01 3.155174461844E-02 -7.575856362269E-02
C9 8.552788168007E-02 1.937505672630E-01 -4.823575476103E-02
C10 -1.981694020470E-01 -9.361977857360E-02 5.099446057920E-02
C11 -3.194839875410E-01 -2.693269401892E-01 8.922807547491E-02
C12 -3.860182917982E-01 -4.953226676208E-01 1.335999919286E-01
C13 -9.871097753438E-02 -3.861476102737E-01 2.631856225178E-02
C14 1.047039687016E-01 -1.440053260124E-01 1.465935551953E-01
C15 2.624586658504E-01 3.197767614202E-01 -8.786637688579E-02
C16 4.962909853889E-01 3.979726661411E-01 -1.359214173720E-01
C17 3.953826256598E-01 1.114842950883E-01 -3.315612268004E-02
C18 1.461963787199E-01 -9.779231652998E-02 -1.499312018734E-01
C19 1.995368126865E-02 2.372798249632E-01 -7.078406706791E-02
C20 -2.447279135124E-01 -3.155174461844E-02 7.575856362269E-02
C21 -4.962909853889E-01 -3.979726661411E-01 1.359214173720E-01
H22 -3.432924714896E-01 4.668148105925E-01 1.351866868199E-01
C23 4.459158519740E-01 3.858187384768E-01 1.754183004381E-01
H24 -1.952472011714E-01 -4.596386789530E-01 -3.272196513954E-02
C25 -5.621137871393E-02 -4.417052421084E-01 5.764626725347E-02
H26 1.648291730543E-01 -3.001610539486E-02 1.824520309204E-01
C27 1.509299271844E-01 -1.964473701501E-01 1.770395318592E-01
C28 3.860182917982E-01 4.953226676208E-01 -1.335999919286E-01
H29 -4.608664725893E-01 3.603306599416E-01 -1.388250730690E-01
C30 -3.895889588296E-01 -4.352565811771E-01 -1.765723755739E-01
H31 4.725699800182E-01 2.112057985297E-01 2.476440886736E-02
C32 4.458461298564E-01 6.354082945854E-02 -6.383920384667E-02
H33 2.957424619954E-02 -1.603973761145E-01 -1.838243706966E-01
C34 1.951527999186E-01 -1.473803297601E-01 -1.805156790221E-01
C35 9.871097753438E-02 3.861476102737E-01 -2.631856225178E-02
C36 -1.047039687016E-01 1.440053260124E-01 -1.465935551953E-01
C37 -3.953826256598E-01 -1.114842950883E-01 3.315612268004E-02
C38 -1.461963787199E-01 9.779231652998E-02 1.499312018734E-01
H39 4.608664725893E-01 -3.603306599416E-01 1.388250730690E-01
C40 3.895889588296E-01 4.352565811771E-01 1.765723755739E-01
H41 3.559922459345E-01 2.548822855958E-01 2.098524928035E-01
H42 -1.214831476933E-01 4.401516665477E-01 2.349767185370E-02
C43 6.940851913811E-02 -3.467760969908E-01 1.328923678876E-01
H44 2.496202249228E-01 -1.201885146076E-01 2.355396088104E-01
H45 3.432924714896E-01 -4.668148105925E-01 -1.351866868199E-01
C46 -4.459158519740E-01 -3.858187384768E-01 -1.754183004381E-01
H47 -2.569760014874E-01 -3.407084476903E-01 -2.113887464846E-01
H48 -4.367813625935E-01 1.268931837307E-01 -3.021279034501E-02
C49 3.455970235982E-01 -6.666647335943E-02 -1.374777237365E-01
H50 1.148763057409E-01 -2.495956427847E-01 -2.377330697455E-01
H51 1.952472011714E-01 4.596386789530E-01 3.272196513954E-02
C52 5.621137871393E-02 4.417052421084E-01 -5.764626725347E-02
H53 -1.648291730543E-01 3.001610539486E-02 -1.824520309204E-01
C54 -1.509299271844E-01 1.964473701501E-01 -1.770395318592E-01
H55 -4.725699800182E-01 -2.112057985297E-01 -2.476440886736E-02
C56 -4.458461298564E-01 -6.354082945854E-02 6.383920384667E-02
H57 -2.957424619954E-02 1.603973761145E-01 1.838243706966E-01
C58 -1.951527999186E-01 1.473803297601E-01 1.805156790221E-01
H59 2.569760014874E-01 3.407084476903E-01 2.113887464846E-01
H60 1.022902922209E-01 -3.907073839141E-01 1.568267937556E-01
H61 -3.559922459345E-01 -2.548822855958E-01 -2.098524928035E-01
H62 3.851215097332E-01 -1.042138469744E-01 -1.606786175224E-01
H63 1.214831476933E-01 -4.401516665477E-01 -2.349767185370E-02
C64 -6.940851913811E-02 3.467760969908E-01 -1.328923678876E-01
H65 -2.496202249228E-01 1.201885146076E-01 -2.355396088104E-01
H66 4.367813625935E-01 -1.268931837307E-01 3.021279034501E-02
C67 -3.455970235982E-01 6.666647335943E-02 1.374777237365E-01
H68 -1.148763057409E-01 2.495956427847E-01 2.377330697455E-01
H69 -1.022902922209E-01 3.907073839141E-01 -1.568267937556E-01
H70 -3.851215097332E-01 1.042138469744E-01 1.606786175224E-01
C71 4.742396017758E-01 -4.709421750821E-01 -4.992612085546E-01
C72 -4.063802214264E-01 -3.018305979530E-01 -4.490055394208E-01
C73 3.062494327370E-01 4.144721183199E-01 4.517642452390E-01
C74 -4.742396017758E-01 4.709421750821E-01 4.992612085546E-01
C75 -2.306730598108E-01 -1.805160124590E-01 -4.107719245251E-01
C76 -4.684482553816E-01 -2.552720864876E-01 -4.242414363773E-01
C77 1.802232385798E-01 2.375413341496E-01 4.121336231142E-01
C78 2.627201750368E-01 4.800463187314E-01 4.292159329321E-01
C79 4.063802214264E-01 3.018305979530E-01 4.490055394208E-01
C80 -3.062494327370E-01 -4.144721183199E-01 -4.517642452390E-01
C81 -1.802232385798E-01 -2.375413341496E-01 -4.121336231142E-01
C82 -1.020273338589E-01 -3.709014611094E-03 -3.640785826280E-01
C83 -3.885157049117E-01 -1.046173743402E-01 -4.668438773200E-01
C84 4.022076834700E-01 -3.538036212801E-01 -3.500687981266E-01
C85 2.306730598108E-01 1.805160124590E-01 4.107719245251E-01
C86 4.677332379246E-03 1.139817082018E-01 3.664000080714E-01
C87 1.138523897263E-01 4.012890224656E-01 4.736814377482E-01
C88 3.559946739876E-01 -3.952960312984E-01 3.534064448047E-01
C89 4.684482553816E-01 2.552720864876E-01 4.242414363773E-01
C90 -2.627201750368E-01 -4.800463187314E-01 -4.292159329321E-01
C91 -4.677332379246E-03 -1.139817082018E-01 -3.664000080714E-01
H92 -1.396693400584E-01 3.913352741074E-02 -3.611749269310E-01
C93 6.474341882289E-02 1.104110411704E-01 -3.234276244261E-01
H94 -2.887942014703E-01 -2.743001998182E-02 4.752355911326E-01
C95 -4.364591705415E-01 -5.415387014361E-02 -4.361607961533E-01
H96 3.396026238855E-01 -4.704257538005E-01 -3.161756293034E-01
C97 3.526196702399E-01 -3.048472000814E-01 -3.194843209779E-01
C98 1.020273338589E-01 3.709014611094E-03 3.640785826280E-01
H99 -3.318518940751E-02 1.567075285104E-01 3.648133131801E-01
C100 -1.141812615232E-01 -5.408414802603E-02 3.245816995619E-01
H101 4.036132104698E-02 3.047527988286E-01 -4.672780348605E-01
C102 5.829475789162E-02 4.437886212861E-01 4.423537327465E-01
H103 4.699838946051E-01 -3.351708269457E-01 3.175479690796E-01
C104 3.035526298499E-01 -3.490700728156E-01 3.229604681408E-01
C105 3.885157049117E-01 1.046173743402E-01 4.668438773200E-01
C106 -4.022076834700E-01 3.538036212801E-01 3.500687981266E-01
C107 -1.138523897263E-01 -4.012890224656E-01 -4.736814377482E-01
C108 -3.559946739876E-01 3.952960312984E-01 -3.534064448047E-01
H109 3.318518940751E-02 -1.567075285104E-01 -3.648133131801E-01
C110 1.141812615232E-01 5.408414802603E-02 -3.245816995619E-01
H111 1.592915523097E-01 2.430239985126E-01 -2.886112535154E-01
H112 -3.731068162693E-01 6.321863740650E-02 -4.697872096550E-01
C113 4.333335266406E-01 -1.544029764018E-01 -3.625222762635E-01
H114 2.504043572153E-01 -3.851236942591E-01 -2.622669302545E-01
H115 1.396693400584E-01 -3.913352741074E-02 3.611749269310E-01
C116 -6.474341882289E-02 -1.104110411704E-01 3.234276244261E-01
H117 -2.451177144042E-01 -1.440077540655E-01 2.901475071965E-01
H118 -5.984833345227E-02 3.785168523067E-01 4.765023281463E-01
C119 1.532239030092E-01 -4.305914808619E-01 3.671076321124E-01
H120 3.798114853924E-01 -2.503797750772E-01 2.644603911896E-01
H121 2.887942014703E-01 2.743001998182E-02 -4.752355911326E-01
C122 4.364591705415E-01 5.415387014361E-02 4.361607961533E-01
H123 -3.396026238855E-01 4.704257538005E-01 3.161756293034E-01
C124 -3.526196702399E-01 3.048472000814E-01 3.194843209779E-01
H125 -4.036132104698E-02 -3.047527988286E-01 4.672780348605E-01
C126 -5.829475789162E-02 -4.437886212861E-01 -4.423537327465E-01
H127 -4.699838946051E-01 3.351708269457E-01 -3.175479690796E-01
C128 -3.035526298499E-01 3.490700728156E-01 -3.229604681408E-01
H129 2.451177144042E-01 1.440077540655E-01 -2.901475071965E-01
H130 3.957861530256E-01 -1.148784902668E-01 -3.393213824776E-01
H131 -1.592915523097E-01 -2.430239985126E-01 2.886112535154E-01
H132 1.092926160859E-01 -3.977097077791E-01 3.431732062444E-01
H133 3.731068162693E-01 -6.321863740650E-02 4.697872096550E-01
C134 -4.333335266406E-01 1.544029764018E-01 3.625222762635E-01
H135 -2.504043572153E-01 3.851236942591E-01 2.622669302545E-01
H136 5.984833345227E-02 -3.785168523067E-01 -4.765023281463E-01
C137 -1.532239030092E-01 4.305914808619E-01 -3.671076321124E-01
H138 -3.798114853924E-01 2.503797750772E-01 -2.644603911896E-01
H139 -3.957861530256E-01 1.148784902668E-01 3.393213824776E-01
H140 -1.092926160859E-01 3.977097077791E-01 -3.431732062444E-01


#===END
