###############################################################
#
#primitive cell cif file
#
###############################################################

posm13_data

_symmetry_space_group_name_H-M 'P 1'
_cell_length_a      13.86596031
_cell_length_b      13.86596031
_cell_length_c      14.21100000
_cell_angle_alpha   90.000000
_cell_angle_beta    90.000000
_cell_angle_gamma   150.032293

loop_
_atom_site_label
_atom_site_fract_x
_atom_site_fract_y
_atom_site_fract_z
C1 2.801255647348E-02 -2.801255647348E-02 0.000000000000E+00
C2 -8.811405608884E-02 -1.957910048503E-01 5.017330817831E-02
C3 1.957910048503E-01 8.811405608884E-02 -5.017330817831E-02
C4 -2.680566666856E-02 2.680566666856E-02 0.000000000000E+00
C5 -2.647781337140E-01 -3.199260698516E-01 8.893080148075E-02
C6 -2.191863631103E-02 -2.380937162198E-01 7.505195137316E-02
C7 3.199260698516E-01 2.647781337140E-01 -8.893080148075E-02
C8 2.380937162198E-01 2.191863631103E-02 -7.505195137316E-02
C9 9.103360416482E-02 1.961289644597E-01 -4.905690716192E-02
C10 -1.961289644597E-01 -9.103360416482E-02 4.905690716192E-02
C11 -3.193346791096E-01 -2.670074723255E-01 8.816365087995E-02
C12 -3.905851448039E-01 -4.955885896059E-01 1.356937534801E-01
C13 -1.033185718453E-01 -3.909247964693E-01 3.464399502062E-02
C14 1.098143126093E-01 -1.359879555655E-01 1.485398333008E-01
C15 2.670074723255E-01 3.193346791096E-01 -8.816365087995E-02
C16 4.955885896059E-01 3.905851448039E-01 -1.356937534801E-01
C17 3.909247964693E-01 1.033185718453E-01 -3.464399502062E-02
C18 1.359879555655E-01 -1.098143126093E-01 -1.485398333008E-01
C19 2.958678957606E-02 2.439140222557E-01 -7.149067931743E-02
C20 -2.439140222557E-01 -2.958678957606E-02 7.149067931743E-02
C21 -4.960250634038E-01 -3.934058131354E-01 1.338276558206E-01
H22 -3.501050219975E-01 4.643681076876E-01 1.386329931291E-01
C23 4.416109428725E-01 3.877377013429E-01 1.765086763619E-01
H24 -2.049974939320E-01 -4.710169852337E-01 -2.273156650806E-02
C25 -5.589107949832E-02 -4.411708770046E-01 6.734828841046E-02
H26 1.723979707499E-01 -1.864784351000E-02 1.812267714843E-01
C27 1.602740456696E-01 -1.835991198693E-01 1.805889081344E-01
C28 3.934058131354E-01 4.960250634038E-01 -1.338276558206E-01
H29 -4.643681076876E-01 3.501050219975E-01 -1.386329931291E-01
C30 -3.877377013429E-01 -4.416109428725E-01 -1.765086763619E-01
H31 4.710169852337E-01 2.049974939320E-01 2.273156650806E-02
C32 4.411708770046E-01 5.589107949832E-02 -6.734828841046E-02
H33 1.864784351000E-02 -1.723979707499E-01 -1.812267714843E-01
C34 1.835991198693E-01 -1.602740456696E-01 -1.805889081344E-01
C35 1.068767007773E-01 3.906054394642E-01 -2.483068991120E-02
C36 -9.268197262230E-02 1.542137491668E-01 -1.479849237679E-01
C37 -3.906054394642E-01 -1.068767007773E-01 2.483068991120E-02
C38 -1.542137491668E-01 9.268197262230E-02 1.479849237679E-01
H39 4.633131754942E-01 -3.535181094337E-01 1.353787667599E-01
C40 3.876699959635E-01 4.395614902786E-01 1.754819996501E-01
H41 3.498248182858E-01 2.565604825220E-01 2.116922972743E-01
H42 -1.224312717125E-01 4.380847647733E-01 3.621225969847E-02
C43 7.701991087094E-02 -3.371173579873E-01 1.401784495054E-01
H44 2.639737135916E-01 -1.009018289514E-01 2.373596709172E-01
H45 3.535181094337E-01 -4.633131754942E-01 -1.353787667599E-01
C46 -4.395614902786E-01 -3.876699959635E-01 -1.754819996501E-01
H47 -2.565604825220E-01 -3.498248182858E-01 -2.116922972743E-01
H48 -4.380847647733E-01 1.224312717125E-01 -3.621225969847E-02
C49 3.371173579873E-01 -7.701991087094E-02 -1.401784495054E-01
H50 1.009018289514E-01 -2.639737135916E-01 -2.373596709172E-01
H51 2.014555057690E-01 4.611916737375E-01 3.475480749884E-02
C52 6.386112867415E-02 4.463804949602E-01 -5.413718268968E-02
H53 -1.528285784189E-01 4.094250808441E-02 -1.850496301327E-01
C54 -1.380362112750E-01 2.080010501994E-01 -1.769663027469E-01
H55 -4.611916737375E-01 -2.014555057690E-01 -3.475480749884E-02
C56 -4.463804949602E-01 -6.386112867415E-02 5.413718268968E-02
H57 -4.094250808441E-02 1.528285784189E-01 1.850496301327E-01
C58 -2.080010501994E-01 1.380362112750E-01 1.769663027469E-01
H59 2.552978045613E-01 3.468758753389E-01 2.095489420137E-01
H60 1.144248702894E-01 -3.762759122213E-01 1.648604062941E-01
H61 -3.468758753389E-01 -2.552978045613E-01 -2.095489420137E-01
H62 3.762759122213E-01 -1.144248702894E-01 -1.648604062941E-01
H63 1.259450597116E-01 -4.388482643679E-01 -1.749820250025E-02
C64 -5.905508162660E-02 3.552557626018E-01 -1.301916421187E-01
H65 -2.352421541160E-01 1.341629913972E-01 -2.359130076387E-01
H66 4.388482643679E-01 -1.259450597116E-01 1.749820250025E-02
C67 -3.552557626018E-01 5.905508162660E-02 1.301916421187E-01
H68 -1.341629913972E-01 2.352421541160E-01 2.359130076387E-01
H69 -9.207926890599E-02 3.995529814259E-01 -1.526450049840E-01
H70 -3.995529814259E-01 9.207926890599E-02 1.526450049840E-01
C71 4.719874435265E-01 -4.719874435265E-01 -5.000000000000E-01
C72 -4.118859439112E-01 -3.042089951497E-01 -4.498266918217E-01
C73 3.042089951497E-01 4.118859439112E-01 4.498266918217E-01
C74 -4.731943333314E-01 4.731943333314E-01 -5.000000000000E-01
C75 -2.352218662860E-01 -1.800739301484E-01 -4.110691985192E-01
C76 -4.780813636890E-01 -2.619062837802E-01 -4.249480486268E-01
C77 1.800739301484E-01 2.352218662860E-01 4.110691985192E-01
C78 2.619062837802E-01 4.780813636890E-01 4.249480486268E-01
C79 4.089663958352E-01 3.038710355403E-01 4.509430928381E-01
C80 -3.038710355403E-01 -4.089663958352E-01 -4.509430928381E-01
C81 -1.806653208904E-01 -2.329925276745E-01 -4.118363491200E-01
C82 -1.094148551961E-01 -4.411410394096E-03 -3.643062465199E-01
C83 -3.966814281547E-01 -1.090752035307E-01 -4.653560049794E-01
C84 3.901856873907E-01 -3.640120444345E-01 -3.514601666992E-01
C85 2.329925276745E-01 1.806653208904E-01 4.118363491200E-01
C86 4.411410394096E-03 1.094148551961E-01 3.643062465199E-01
C87 1.090752035307E-01 3.966814281547E-01 4.653560049794E-01
C88 3.640120444345E-01 -3.901856873907E-01 3.514601666992E-01
C89 4.704132104239E-01 2.560859777443E-01 4.285093206826E-01
C90 -2.560859777443E-01 -4.704132104239E-01 -4.285093206826E-01
C91 -3.974936596245E-03 -1.065941868646E-01 -3.661723441794E-01
H92 -1.498949780025E-01 3.563189231244E-02 -3.613670068709E-01
C93 5.838905712754E-02 1.122622986571E-01 -3.234913236381E-01
H94 -2.950025060680E-01 -2.898301476633E-02 4.772684334919E-01
C95 -4.441089205017E-01 -5.882912299539E-02 -4.326517115895E-01
H96 3.276020292501E-01 -4.813521564900E-01 -3.187732285157E-01
C97 3.397259543304E-01 -3.164008801307E-01 -3.194110918656E-01
C98 1.065941868646E-01 3.974936596245E-03 3.661723441794E-01
H99 -3.563189231244E-02 1.498949780025E-01 3.613670068709E-01
C100 -1.122622986571E-01 -5.838905712754E-02 3.234913236381E-01
H101 2.898301476633E-02 2.950025060680E-01 -4.772684334919E-01
C102 5.882912299539E-02 4.441089205017E-01 4.326517115895E-01
H103 4.813521564900E-01 -3.276020292501E-01 3.187732285157E-01
C104 3.164008801307E-01 -3.397259543304E-01 3.194110918656E-01
C105 3.931232992227E-01 1.093945605358E-01 4.751693100888E-01
C106 -4.073180273777E-01 3.457862508332E-01 3.520150762321E-01
C107 -1.093945605358E-01 -3.931232992227E-01 -4.751693100888E-01
C108 -3.457862508332E-01 4.073180273777E-01 -3.520150762321E-01
H109 3.668682450581E-02 -1.464818905663E-01 -3.646212332401E-01
C110 1.123300040365E-01 6.043850972138E-02 -3.245180003499E-01
H111 1.501751817142E-01 2.434395174780E-01 -2.883077027257E-01
H112 -3.775687282875E-01 6.191523522670E-02 -4.637877403015E-01
C113 4.229800891291E-01 -1.628826420127E-01 -3.598215504946E-01
H114 2.360262864084E-01 -3.990981710486E-01 -2.626403290828E-01
H115 1.464818905663E-01 -3.668682450581E-02 3.646212332401E-01
C116 -6.043850972138E-02 -1.123300040365E-01 3.245180003499E-01
H117 -2.434395174780E-01 -1.501751817142E-01 2.883077027257E-01
H118 -6.191523522670E-02 3.775687282875E-01 4.637877403015E-01
C119 1.628826420127E-01 -4.229800891291E-01 3.598215504946E-01
H120 3.990981710486E-01 -2.360262864084E-01 2.626403290828E-01
H121 2.985444942310E-01 3.880832626248E-02 -4.652451925012E-01
C122 4.361388713259E-01 5.361950503984E-02 4.458628173103E-01
H123 -3.471714215811E-01 4.590574919156E-01 3.149503698673E-01
C124 -3.619637887250E-01 2.919989498006E-01 3.230336972531E-01
H125 -3.880832626248E-02 -2.985444942310E-01 4.652451925012E-01
C126 -5.361950503984E-02 -4.361388713259E-01 -4.458628173103E-01
H127 -4.590574919156E-01 3.471714215811E-01 -3.149503698673E-01
C128 -2.919989498006E-01 3.619637887250E-01 -3.230336972531E-01
H129 2.447021954387E-01 1.531241246611E-01 -2.904510579863E-01
H130 3.855751297106E-01 -1.237240877787E-01 -3.351395937059E-01
H131 -1.531241246611E-01 -2.447021954387E-01 2.904510579863E-01
H132 1.237240877787E-01 -3.855751297106E-01 3.351395937059E-01
H133 3.740549402884E-01 -6.115173563207E-02 4.825017974998E-01
C134 -4.409449183734E-01 1.447442373982E-01 3.698083578813E-01
H135 -2.647578458840E-01 3.658370086028E-01 2.640869923613E-01
H136 6.115173563207E-02 -3.740549402884E-01 -4.825017974998E-01
C137 -1.447442373982E-01 4.409449183734E-01 -3.698083578813E-01
H138 -3.658370086028E-01 2.647578458840E-01 -2.640869923613E-01
H139 -4.079207310940E-01 1.004470185741E-01 3.473549950160E-01
H140 -1.004470185741E-01 4.079207310940E-01 -3.473549950160E-01


#===END
