###############################################################
#
#primitive cell cif file
#
###############################################################

posm11_data

_symmetry_space_group_name_H-M 'P 1'
_cell_length_a      13.86596031
_cell_length_b      13.86596031
_cell_length_c      14.21100000
_cell_angle_alpha   90.000000
_cell_angle_beta    90.000000
_cell_angle_gamma   150.032293

loop_
_atom_site_label
_atom_site_fract_x
_atom_site_fract_y
_atom_site_fract_z
C1 3.296548112179E-02 -2.185274202025E-02 5.503928643656E-03
C2 -8.480040228084E-02 -1.911999874374E-01 5.448979705756E-02
C3 2.007199818726E-01 9.434725797283E-02 -4.474041828267E-02
C4 -2.185274202025E-02 3.296548112179E-02 5.503928643656E-03
C5 -2.615373619813E-01 -3.152746431133E-01 9.306085782239E-02
C6 -2.337468752253E-02 -2.393731576842E-01 7.526719884413E-02
C7 3.239861058479E-01 2.702482440583E-01 -8.403359453832E-02
C8 2.426345807914E-01 2.813073836456E-02 -7.127543184646E-02
C9 9.434725797283E-02 2.007199818726E-01 -4.474041828267E-02
C10 -1.911999874374E-01 -8.480040228084E-02 5.448979705756E-02
C11 -3.152746431133E-01 -2.615373619813E-01 9.306085782239E-02
C12 -3.892716408968E-01 -4.931077286664E-01 1.378644112218E-01
C13 -1.052326770290E-01 -3.888966665936E-01 2.848109285701E-02
C14 1.046458337543E-01 -1.467243879471E-01 1.490954490899E-01
C15 2.702482440583E-01 3.239861058479E-01 -8.403359453832E-02
C16 4.985059243433E-01 3.947193170425E-01 -1.316569980789E-01
C17 3.926335693400E-01 1.049625955936E-01 -3.099359207480E-02
C18 1.434773167852E-01 -9.785045147727E-02 -1.474293079789E-01
C19 2.813073836456E-02 2.426345807914E-01 -7.127543184646E-02
C20 -2.393731576842E-01 -2.337468752253E-02 7.526719884413E-02
C21 -4.931077286664E-01 -3.892716408968E-01 1.378644112218E-01
H22 -3.492148988442E-01 4.664039525338E-01 1.399479414973E-01
C23 4.414875143986E-01 3.886044095007E-01 1.775500340896E-01
H24 -2.039904473371E-01 -4.613692267471E-01 -2.917504000500E-02
C25 -6.103194510981E-02 -4.444992637758E-01 5.482568595595E-02
H26 1.684395982182E-01 -3.139709150409E-02 1.866191407767E-01
C27 1.514274018163E-01 -2.002470357608E-01 1.750140675798E-01
C28 3.947193170425E-01 4.985059243433E-01 -1.316569980789E-01
H29 -4.612773306480E-01 3.544082325869E-01 -1.340638183917E-01
C30 -3.868032878056E-01 -4.396849187525E-01 -1.744406419223E-01
H31 4.708394322240E-01 2.024625523640E-01 2.831133400190E-02
C32 4.430521081889E-01 5.872026306266E-02 -6.665978514418E-02
H33 2.819326009031E-02 -1.567869509506E-01 -1.796572608404E-01
C34 1.913531343078E-01 -1.468828551282E-01 -1.825411433015E-01
C35 1.049625955936E-01 3.926335693400E-01 -3.099359207480E-02
C36 -9.785045147727E-02 1.434773167852E-01 -1.474293079789E-01
C37 -3.888966665936E-01 -1.052326770290E-01 2.848109285701E-02
C38 -1.467243879471E-01 1.046458337543E-01 1.490954490899E-01
H39 4.664039525338E-01 -3.492148988442E-01 1.399479414973E-01
C40 3.886044095007E-01 4.414875143986E-01 1.775500340896E-01
H41 3.473451675279E-01 2.549915803884E-01 2.107471464418E-01
H42 -1.267689345157E-01 4.385325508473E-01 1.809671871916E-02
C43 6.809659099354E-02 -3.500496312156E-01 1.280051518132E-01
H44 2.527694386118E-01 -1.244352116846E-01 2.319888272689E-01
H45 3.544082325869E-01 -4.612773306480E-01 -1.340638183917E-01
C46 -4.396849187525E-01 -3.868032878056E-01 -1.744406419223E-01
H47 -2.568667066948E-01 -3.493555260968E-01 -2.104940928462E-01
H48 -4.384004782939E-01 1.216073969084E-01 -3.561374347956E-02
C49 3.423234893735E-01 -6.797840150400E-02 -1.423649398109E-01
H50 1.106296086640E-01 -2.464464290958E-01 -2.412838512870E-01
H51 2.024625523640E-01 4.708394322240E-01 2.831133400190E-02
C52 5.872026306266E-02 4.430521081889E-01 -6.665978514418E-02
H53 -1.567869509506E-01 2.819326009031E-02 -1.796572608404E-01
C54 -1.468828551282E-01 1.913531343078E-01 -1.825411433015E-01
H55 -4.613692267471E-01 -2.039904473371E-01 -2.917504000500E-02
C56 -4.444992637758E-01 -6.103194510981E-02 5.482568595595E-02
H57 -3.139709150409E-02 1.684395982182E-01 1.866191407767E-01
C58 -2.002470357608E-01 1.514274018163E-01 1.750140675798E-01
H59 2.549915803884E-01 3.473451675279E-01 2.107471464418E-01
H60 1.027808010447E-01 -3.935491537334E-01 1.480508957232E-01
H61 -3.493555260968E-01 -2.568667066948E-01 -2.104940928462E-01
H62 3.822797399138E-01 -1.037233381507E-01 -1.694545155549E-01
H63 1.216073969084E-01 -4.384004782939E-01 -3.561374347956E-02
C64 -6.797840150400E-02 3.423234893735E-01 -1.423649398109E-01
H65 -2.464464290958E-01 1.106296086640E-01 -2.412838512870E-01
H66 4.385325508473E-01 -1.267689345157E-01 1.809671871916E-02
C67 -3.500496312156E-01 6.809659099354E-02 1.280051518132E-01
H68 -1.244352116846E-01 2.527694386118E-01 2.319888272689E-01
H69 -1.037233381507E-01 3.822797399138E-01 -1.694545155549E-01
H70 -3.935491537334E-01 1.027808010447E-01 1.480508957232E-01
C71 4.670345188782E-01 -4.781472579797E-01 -4.944960713563E-01
C72 -4.151995977192E-01 -3.088000125626E-01 -4.455102029424E-01
C73 2.992800181274E-01 4.056527420272E-01 4.552595817173E-01
C74 -4.781472579797E-01 4.670345188782E-01 -4.944960713563E-01
C75 -2.384626380187E-01 -1.847253568867E-01 -4.069391421776E-01
C76 -4.766253124775E-01 -2.606268423158E-01 -4.247328011559E-01
C77 1.760138941521E-01 2.297517559417E-01 4.159664054617E-01
C78 2.573654192086E-01 4.718692616354E-01 4.287245681535E-01
C79 4.056527420272E-01 2.992800181274E-01 4.552595817173E-01
C80 -3.088000125626E-01 -4.151995977192E-01 -4.455102029424E-01
C81 -1.847253568867E-01 -2.384626380187E-01 -4.069391421776E-01
C82 -1.107283591032E-01 -6.892271333607E-03 -3.621355887782E-01
C83 -3.947673229710E-01 -1.111033334064E-01 -4.715189071430E-01
C84 3.953541662457E-01 -3.532756120529E-01 -3.509045509101E-01
C85 2.297517559417E-01 1.760138941521E-01 4.159664054617E-01
C86 1.494075656734E-03 1.052806829575E-01 3.683430019211E-01
C87 1.073664306600E-01 3.950374044064E-01 4.690064079252E-01
C88 3.565226832148E-01 -4.021495485227E-01 3.525706920211E-01
C89 4.718692616354E-01 2.573654192086E-01 4.287245681535E-01
C90 -2.606268423158E-01 -4.766253124775E-01 -4.247328011559E-01
C91 -6.892271333607E-03 -1.107283591032E-01 -3.621355887782E-01
H92 -1.507851011558E-01 3.359604746622E-02 -3.600520585027E-01
C93 5.851248560143E-02 1.113955904993E-01 -3.224499659104E-01
H94 -2.960095526629E-01 -3.863077325285E-02 4.708249599950E-01
C95 -4.389680548902E-01 -5.550073622417E-02 -4.451743140441E-01
H96 3.315604017818E-01 -4.686029084959E-01 -3.133808592233E-01
C97 3.485725981837E-01 -2.997529642392E-01 -3.249859324202E-01
C98 1.052806829575E-01 1.494075656734E-03 3.683430019211E-01
H99 -3.872266935204E-02 1.455917674131E-01 3.659361816083E-01
C100 -1.131967121944E-01 -6.031508124748E-02 3.255593580777E-01
H101 2.916056777595E-02 2.975374476360E-01 -4.716886659981E-01
C102 5.694789181106E-02 4.412797369373E-01 4.333402148558E-01
H103 4.718067399097E-01 -3.432130490494E-01 3.203427391596E-01
C104 3.086468656922E-01 -3.531171448718E-01 3.174588566985E-01
C105 3.950374044064E-01 1.073664306600E-01 4.690064079252E-01
C106 -4.021495485227E-01 3.565226832148E-01 3.525706920211E-01
C107 -1.111033334064E-01 -3.947673229710E-01 -4.715189071430E-01
C108 -3.532756120529E-01 3.953541662457E-01 -3.509045509101E-01
H109 3.359604746622E-02 -1.507851011558E-01 -3.600520585027E-01
C110 1.113955904993E-01 5.851248560143E-02 -3.224499659104E-01
H111 1.526548324721E-01 2.450084196116E-01 -2.892528535582E-01
H112 -3.732310654843E-01 6.146744915266E-02 -4.819032812808E-01
C113 4.319034090065E-01 -1.499503687844E-01 -3.719948481868E-01
H114 2.472305613882E-01 -3.755647883154E-01 -2.680111727311E-01
H115 1.455917674131E-01 -3.872266935204E-02 3.659361816083E-01
C116 -6.031508124748E-02 -1.131967121944E-01 3.255593580777E-01
H117 -2.431332933052E-01 -1.506444739032E-01 2.895059071538E-01
H118 -6.159952170611E-02 3.783926030916E-01 4.643862565204E-01
C119 1.576765106265E-01 -4.320215984960E-01 3.576350601891E-01
H120 3.893703913360E-01 -2.535535709042E-01 2.587161487130E-01
H121 2.975374476360E-01 2.916056777595E-02 -4.716886659981E-01
C122 4.412797369373E-01 5.694789181106E-02 4.333402148558E-01
H123 -3.432130490494E-01 4.718067399097E-01 3.203427391596E-01
C124 -3.531171448718E-01 3.086468656922E-01 3.174588566985E-01
H125 -3.863077325285E-02 -2.960095526629E-01 4.708249599950E-01
C126 -5.550073622417E-02 -4.389680548902E-01 -4.451743140441E-01
H127 -4.686029084959E-01 3.315604017818E-01 -3.133808592233E-01
C128 -2.997529642392E-01 3.485725981837E-01 -3.249859324202E-01
H129 2.450084196116E-01 1.526548324721E-01 -2.892528535582E-01
H130 3.972191989553E-01 -1.064508462666E-01 -3.519491042768E-01
H131 -1.506444739032E-01 -2.431332933052E-01 2.895059071538E-01
H132 1.177202600862E-01 -3.962766618493E-01 3.305454844451E-01
H133 3.783926030916E-01 -6.159952170611E-02 4.643862565204E-01
C134 -4.320215984960E-01 1.576765106265E-01 3.576350601891E-01
H135 -2.535535709042E-01 3.893703913360E-01 2.587161487130E-01
H136 6.146744915266E-02 -3.732310654843E-01 -4.819032812808E-01
C137 -1.499503687844E-01 4.319034090065E-01 -3.719948481868E-01
H138 -3.755647883154E-01 2.472305613882E-01 -2.680111727311E-01
H139 -3.962766618493E-01 1.177202600862E-01 3.305454844451E-01
H140 -1.064508462666E-01 3.972191989553E-01 -3.519491042768E-01


#===END
