###############################################################################
#
#                    CRYSTAL17 CIF FILE
#
###############################################################################

data_OPT_STEP_1

_symmetry_space_group_name_H-M 'P 1'
_cell_length_a      9.45830000
_cell_length_b      6.01000000
_cell_length_c      8.55760000
_cell_angle_alpha   90.000000
_cell_angle_beta  103.583000
_cell_angle_gamma   90.000000

loop_
_atom_site_label
_atom_site_fract_x
_atom_site_fract_y
_atom_site_fract_z
C1 -3.619500000000E-01 -4.183000000000E-01 -4.209400000000E-01
C2  3.619500000000E-01  8.170000000000E-02 -7.906000000000E-02
C3  3.619500000000E-01  4.183000000000E-01  4.209400000000E-01
C4 -3.619500000000E-01 -8.170000000000E-02  7.906000000000E-02
C5 -2.207000000000E-01 -3.458000000000E-01 -3.383000000000E-01
C6  2.207000000000E-01  1.542000000000E-01 -1.617000000000E-01
C7  2.207000000000E-01  3.458000000000E-01  3.383000000000E-01
C8 -2.207000000000E-01 -1.542000000000E-01  1.617000000000E-01
H9 -1.894000000000E-01 -1.990000000000E-01 -3.688000000000E-01
H10  1.894000000000E-01  3.010000000000E-01 -1.312000000000E-01
H11  1.894000000000E-01  1.990000000000E-01  3.688000000000E-01
H12 -1.894000000000E-01 -3.010000000000E-01  1.312000000000E-01
C13 -1.362000000000E-01 -4.706000000000E-01 -2.228000000000E-01
C14  1.362000000000E-01  2.940000000000E-02 -2.772000000000E-01
C15  1.362000000000E-01  4.706000000000E-01  2.228000000000E-01
C16 -1.362000000000E-01 -2.940000000000E-02  2.772000000000E-01
H17 -3.900000000000E-02 -4.200000000000E-01 -1.660000000000E-01
H18  3.900000000000E-02  8.000000000000E-02 -3.340000000000E-01
H19  3.900000000000E-02  4.200000000000E-01  1.660000000000E-01
H20 -3.900000000000E-02 -8.000000000000E-02  3.340000000000E-01
C21 -1.847000000000E-01  3.205000000000E-01 -1.809000000000E-01
C22  1.847000000000E-01 -1.795000000000E-01 -3.191000000000E-01
C23  1.847000000000E-01 -3.205000000000E-01  1.809000000000E-01
C24 -1.847000000000E-01  1.795000000000E-01  3.191000000000E-01
H25 -1.230000000000E-01  2.260000000000E-01 -9.600000000000E-02
H26  1.230000000000E-01 -2.740000000000E-01 -4.040000000000E-01
H27  1.230000000000E-01 -2.260000000000E-01  9.600000000000E-02
H28 -1.230000000000E-01  2.740000000000E-01  4.040000000000E-01
C29 -3.168000000000E-01  2.430000000000E-01 -2.570700000000E-01
C30  3.168000000000E-01 -2.570000000000E-01 -2.429300000000E-01
C31  3.168000000000E-01 -2.430000000000E-01  2.570700000000E-01
C32 -3.168000000000E-01  2.570000000000E-01  2.429300000000E-01
H33 -3.562000000000E-01  8.800000000000E-02 -2.327000000000E-01
H34  3.562000000000E-01 -4.120000000000E-01 -2.673000000000E-01
H35  3.562000000000E-01 -8.800000000000E-02  2.327000000000E-01
H36 -3.562000000000E-01  4.120000000000E-01  2.673000000000E-01
C37 -4.109500000000E-01  3.686000000000E-01 -3.803300000000E-01
C38  4.109500000000E-01 -1.314000000000E-01 -1.196700000000E-01
C39  4.109500000000E-01 -3.686000000000E-01  3.803300000000E-01
C40 -4.109500000000E-01  1.314000000000E-01  1.196700000000E-01
C41 -4.527900000000E-01 -2.931000000000E-01  4.598900000000E-01
C42  4.527900000000E-01  2.069000000000E-01  4.011000000000E-02
C43  4.527900000000E-01  2.931000000000E-01 -4.598900000000E-01
C44 -4.527900000000E-01 -2.069000000000E-01 -4.011000000000E-02
H45 -4.163000000000E-01 -1.410000000000E-01  4.324000000000E-01
H46  4.163000000000E-01  3.590000000000E-01  6.760000000000E-02
H47  4.163000000000E-01  1.410000000000E-01 -4.324000000000E-01
H48 -4.163000000000E-01 -3.590000000000E-01 -6.760000000000E-02


#===END

data_OPT_STEP_2

_symmetry_space_group_name_H-M 'P 1'
_cell_length_a      9.45830000
_cell_length_b      6.01000000
_cell_length_c      8.55760000
_cell_angle_alpha   90.000000
_cell_angle_beta  103.583000
_cell_angle_gamma   90.000000

loop_
_atom_site_label
_atom_site_fract_x
_atom_site_fract_y
_atom_site_fract_z
C1 -3.619500000000E-01 -4.183000000000E-01 -4.209400000000E-01
C2  3.619500000000E-01  8.170000000000E-02 -7.906000000000E-02
C3  3.619500000000E-01  4.183000000000E-01  4.209400000000E-01
C4 -3.619500000000E-01 -8.170000000000E-02  7.906000000000E-02
C5 -2.207000000000E-01 -3.458000000000E-01 -3.383000000000E-01
C6  2.207000000000E-01  1.542000000000E-01 -1.617000000000E-01
C7  2.207000000000E-01  3.458000000000E-01  3.383000000000E-01
C8 -2.207000000000E-01 -1.542000000000E-01  1.617000000000E-01
H9 -1.894000000000E-01 -1.990000000000E-01 -3.688000000000E-01
H10  1.894000000000E-01  3.010000000000E-01 -1.312000000000E-01
H11  1.894000000000E-01  1.990000000000E-01  3.688000000000E-01
H12 -1.894000000000E-01 -3.010000000000E-01  1.312000000000E-01
C13 -1.362000000000E-01 -4.706000000000E-01 -2.228000000000E-01
C14  1.362000000000E-01  2.940000000000E-02 -2.772000000000E-01
C15  1.362000000000E-01  4.706000000000E-01  2.228000000000E-01
C16 -1.362000000000E-01 -2.940000000000E-02  2.772000000000E-01
H17 -3.900000000000E-02 -4.200000000000E-01 -1.660000000000E-01
H18  3.900000000000E-02  8.000000000000E-02 -3.340000000000E-01
H19  3.900000000000E-02  4.200000000000E-01  1.660000000000E-01
H20 -3.900000000000E-02 -8.000000000000E-02  3.340000000000E-01
C21 -1.847000000000E-01  3.205000000000E-01 -1.809000000000E-01
C22  1.847000000000E-01 -1.795000000000E-01 -3.191000000000E-01
C23  1.847000000000E-01 -3.205000000000E-01  1.809000000000E-01
C24 -1.847000000000E-01  1.795000000000E-01  3.191000000000E-01
H25 -1.230000000000E-01  2.260000000000E-01 -9.600000000000E-02
H26  1.230000000000E-01 -2.740000000000E-01 -4.040000000000E-01
H27  1.230000000000E-01 -2.260000000000E-01  9.600000000000E-02
H28 -1.230000000000E-01  2.740000000000E-01  4.040000000000E-01
C29 -3.168000000000E-01  2.430000000000E-01 -2.570700000000E-01
C30  3.168000000000E-01 -2.570000000000E-01 -2.429300000000E-01
C31  3.168000000000E-01 -2.430000000000E-01  2.570700000000E-01
C32 -3.168000000000E-01  2.570000000000E-01  2.429300000000E-01
H33 -3.562000000000E-01  8.800000000000E-02 -2.327000000000E-01
H34  3.562000000000E-01 -4.120000000000E-01 -2.673000000000E-01
H35  3.562000000000E-01 -8.800000000000E-02  2.327000000000E-01
H36 -3.562000000000E-01  4.120000000000E-01  2.673000000000E-01
C37 -4.109500000000E-01  3.686000000000E-01 -3.803300000000E-01
C38  4.109500000000E-01 -1.314000000000E-01 -1.196700000000E-01
C39  4.109500000000E-01 -3.686000000000E-01  3.803300000000E-01
C40 -4.109500000000E-01  1.314000000000E-01  1.196700000000E-01
C41 -4.527900000000E-01 -2.931000000000E-01  4.598900000000E-01
C42  4.527900000000E-01  2.069000000000E-01  4.011000000000E-02
C43  4.527900000000E-01  2.931000000000E-01 -4.598900000000E-01
C44 -4.527900000000E-01 -2.069000000000E-01 -4.011000000000E-02
H45 -4.163000000000E-01 -1.410000000000E-01  4.324000000000E-01
H46  4.163000000000E-01  3.590000000000E-01  6.760000000000E-02
H47  4.163000000000E-01  1.410000000000E-01 -4.324000000000E-01
H48 -4.163000000000E-01 -3.590000000000E-01 -6.760000000000E-02


#===END

data_OPT_STEP_3

_symmetry_space_group_name_H-M 'P 1'
_cell_length_a      9.43717637
_cell_length_b      5.98320428
_cell_length_c      8.49447183
_cell_angle_alpha   90.000000
_cell_angle_beta  102.950927
_cell_angle_gamma   90.000000

loop_
_atom_site_label
_atom_site_fract_x
_atom_site_fract_y
_atom_site_fract_z
C1 -3.625581931126E-01 -4.177443695998E-01 -4.209276309918E-01
C2  3.625581931126E-01  8.225563040023E-02 -7.907236900816E-02
C3  3.625581931126E-01  4.177443695998E-01  4.209276309918E-01
C4 -3.625581931126E-01 -8.225563040023E-02  7.907236900816E-02
C5 -2.222827163901E-01 -3.433983055299E-01 -3.380790429741E-01
C6  2.222827163901E-01  1.566016944701E-01 -1.619209570259E-01
C7  2.222827163901E-01  3.433983055299E-01  3.380790429741E-01
C8 -2.222827163901E-01 -1.566016944701E-01  1.619209570259E-01
H9 -1.895686098304E-01 -1.914230396396E-01 -3.694116699230E-01
H10  1.895686098304E-01  3.085769603604E-01 -1.305883300770E-01
H11  1.895686098304E-01  1.914230396396E-01  3.694116699230E-01
H12 -1.895686098304E-01 -3.085769603604E-01  1.305883300770E-01
C13 -1.372779470591E-01 -4.701780914603E-01 -2.230077081579E-01
C14  1.372779470591E-01  2.982190853968E-02 -2.769922918421E-01
C15  1.372779470591E-01  4.701780914603E-01  2.230077081579E-01
C16 -1.372779470591E-01 -2.982190853968E-02  2.769922918421E-01
H17 -3.748882646901E-02 -4.163730301323E-01 -1.649052895328E-01
H18  3.748882646901E-02  8.362696986765E-02 -3.350947104672E-01
H19  3.748882646901E-02  4.163730301323E-01  1.649052895328E-01
H20 -3.748882646901E-02 -8.362696986765E-02  3.350947104672E-01
C21 -1.853146738321E-01  3.178599114224E-01 -1.820810865953E-01
C22  1.853146738321E-01 -1.821400885776E-01 -3.179189134047E-01
C23  1.853146738321E-01 -3.178599114224E-01  1.820810865953E-01
C24 -1.853146738321E-01  1.821400885776E-01  3.179189134047E-01
H25 -1.214715762231E-01  2.207796230237E-01 -9.511165368116E-02
H26  1.214715762231E-01 -2.792203769763E-01 -4.048883463188E-01
H27  1.214715762231E-01 -2.207796230237E-01  9.511165368116E-02
H28 -1.214715762231E-01  2.792203769763E-01  4.048883463188E-01
C29 -3.176869474225E-01  2.398996202900E-01 -2.580080201832E-01
C30  3.176869474225E-01 -2.601003797100E-01 -2.419919798168E-01
C31  3.176869474225E-01 -2.398996202900E-01  2.580080201832E-01
C32 -3.176869474225E-01  2.601003797100E-01  2.419919798168E-01
H33 -3.579454689831E-01  8.359083793926E-02 -2.301956267902E-01
H34  3.579454689831E-01 -4.164091620607E-01 -2.698043732098E-01
H35  3.579454689831E-01 -8.359083793926E-02  2.301956267902E-01
H36 -3.579454689831E-01  4.164091620607E-01  2.698043732098E-01
C37 -4.114115293017E-01  3.674668075222E-01 -3.803684268621E-01
C38  4.114115293017E-01 -1.325331924778E-01 -1.196315731379E-01
C39  4.114115293017E-01 -3.674668075222E-01  3.803684268621E-01
C40 -4.114115293017E-01  1.325331924778E-01  1.196315731379E-01
C41 -4.526866480507E-01 -2.909068687943E-01  4.601110316090E-01
C42  4.526866480507E-01  2.090931312057E-01  3.988896839099E-02
C43  4.526866480507E-01  2.909068687943E-01 -4.601110316090E-01
C44 -4.526866480507E-01 -2.090931312057E-01 -3.988896839099E-02
H45 -4.153606003652E-01 -1.356050911662E-01  4.308530863799E-01
H46  4.153606003652E-01  3.643949088338E-01  6.914691362009E-02
H47  4.153606003652E-01  1.356050911662E-01 -4.308530863799E-01
H48 -4.153606003652E-01 -3.643949088338E-01 -6.914691362009E-02


#===END

data_OPT_STEP_4

_symmetry_space_group_name_H-M 'P 1'
_cell_length_a      9.37058760
_cell_length_b      5.98786200
_cell_length_c      8.30110687
_cell_angle_alpha   90.000000
_cell_angle_beta  101.538477
_cell_angle_gamma   90.000000

loop_
_atom_site_label
_atom_site_fract_x
_atom_site_fract_y
_atom_site_fract_z
C1 -3.630078772097E-01 -4.176928121206E-01 -4.210681115490E-01
C2  3.630078772097E-01  8.230718787944E-02 -7.893188845098E-02
C3  3.630078772097E-01  4.176928121206E-01  4.210681115490E-01
C4 -3.630078772097E-01 -8.230718787944E-02  7.893188845098E-02
C5 -2.221310864197E-01 -3.444835279295E-01 -3.414076611263E-01
C6  2.221310864197E-01  1.555164720705E-01 -1.585923388737E-01
C7  2.221310864197E-01  3.444835279295E-01  3.414076611263E-01
C8 -2.221310864197E-01 -1.555164720705E-01  1.585923388737E-01
H9 -1.892711535046E-01 -1.830590873721E-01 -3.691147250882E-01
H10  1.892711535046E-01  3.169409126279E-01 -1.308852749118E-01
H11  1.892711535046E-01  1.830590873721E-01  3.691147250882E-01
H12 -1.892711535046E-01 -3.169409126279E-01  1.308852749118E-01
C13 -1.365997977799E-01 -4.731268237374E-01 -2.262435443517E-01
C14  1.365997977799E-01  2.687317626261E-02 -2.737564556483E-01
C15  1.365997977799E-01  4.731268237374E-01  2.262435443517E-01
C16 -1.365997977799E-01 -2.687317626261E-02  2.737564556483E-01
H17 -3.360740884421E-02 -4.150846122676E-01 -1.667269054540E-01
H18  3.360740884421E-02  8.491538773243E-02 -3.332730945460E-01
H19  3.360740884421E-02  4.150846122676E-01  1.667269054540E-01
H20 -3.360740884421E-02 -8.491538773243E-02  3.332730945460E-01
C21 -1.875264995718E-01  3.182059850843E-01 -1.798255057128E-01
C22  1.875264995718E-01 -1.817940149157E-01 -3.201744942872E-01
C23  1.875264995718E-01 -3.182059850843E-01  1.798255057128E-01
C24 -1.875264995718E-01  1.817940149157E-01  3.201744942872E-01
H25 -1.199476881640E-01  2.185688967916E-01 -9.046472266417E-02
H26  1.199476881640E-01 -2.814311032084E-01 -4.095352773358E-01
H27  1.199476881640E-01 -2.185688967916E-01  9.046472266417E-02
H28 -1.199476881640E-01  2.814311032084E-01  4.095352773358E-01
C29 -3.198454359658E-01  2.393283127383E-01 -2.561750103749E-01
C30  3.198454359658E-01 -2.606716872617E-01 -2.438249896251E-01
C31  3.198454359658E-01 -2.393283127383E-01  2.561750103749E-01
C32 -3.198454359658E-01  2.606716872617E-01  2.438249896251E-01
H33 -3.552992470069E-01  7.395678276476E-02 -2.322701225715E-01
H34  3.552992470069E-01 -4.260432172352E-01 -2.677298774285E-01
H35  3.552992470069E-01 -7.395678276476E-02  2.322701225715E-01
H36 -3.552992470069E-01  4.260432172352E-01  2.677298774285E-01
C37 -4.117209499926E-01  3.666338716741E-01 -3.800187870320E-01
C38  4.117209499926E-01 -1.333661283259E-01 -1.199812129680E-01
C39  4.117209499926E-01 -3.666338716741E-01  3.800187870320E-01
C40 -4.117209499926E-01  1.333661283259E-01  1.199812129680E-01
C41 -4.528570960350E-01 -2.886430765854E-01  4.606377290537E-01
C42  4.528570960350E-01  2.113569234146E-01  3.936227094626E-02
C43  4.528570960350E-01  2.886430765854E-01 -4.606377290537E-01
C44 -4.528570960350E-01 -2.113569234146E-01 -3.936227094626E-02
H45 -4.171515060854E-01 -1.258907435662E-01  4.331286444708E-01
H46  4.171515060854E-01  3.741092564338E-01  6.687135552922E-02
H47  4.171515060854E-01  1.258907435662E-01 -4.331286444708E-01
H48 -4.171515060854E-01 -3.741092564338E-01 -6.687135552922E-02


#===END

data_OPT_STEP_5

_symmetry_space_group_name_H-M 'P 1'
_cell_length_a      9.18314560
_cell_length_b      5.87580648
_cell_length_c      8.00559924
_cell_angle_alpha   90.000000
_cell_angle_beta   98.918110
_cell_angle_gamma   90.000000

loop_
_atom_site_label
_atom_site_fract_x
_atom_site_fract_y
_atom_site_fract_z
C1 -3.639741656938E-01 -4.124119961682E-01 -4.201472954399E-01
C2  3.639741656938E-01  8.758800383184E-02 -7.985270456009E-02
C3  3.639741656938E-01  4.124119961682E-01  4.201472954399E-01
C4 -3.639741656938E-01 -8.758800383183E-02  7.985270456009E-02
C5 -2.254995229752E-01 -3.312099570933E-01 -3.372005325854E-01
C6  2.254995229752E-01  1.687900429067E-01 -1.627994674146E-01
C7  2.254995229752E-01  3.312099570933E-01  3.372005325854E-01
C8 -2.254995229752E-01 -1.687900429067E-01  1.627994674146E-01
H9 -1.909623143779E-01 -1.635818432368E-01 -3.666249956563E-01
H10  1.909623143779E-01  3.364181567632E-01 -1.333750043437E-01
H11  1.909623143779E-01  1.635818432368E-01  3.666249956563E-01
H12 -1.909623143779E-01 -3.364181567632E-01  1.333750043437E-01
C13 -1.390135688006E-01 -4.633067734010E-01 -2.221289282994E-01
C14  1.390135688006E-01  3.669322659901E-02 -2.778710717006E-01
C15  1.390135688006E-01  4.633067734010E-01  2.221289282994E-01
C16 -1.390135688006E-01 -3.669322659901E-02  2.778710717006E-01
H17 -3.449591422045E-02 -3.999595912936E-01 -1.614347655899E-01
H18  3.449591422045E-02  1.000404087064E-01 -3.385652344101E-01
H19  3.449591422045E-02  3.999595912936E-01  1.614347655899E-01
H20 -3.449591422045E-02 -1.000404087064E-01  3.385652344101E-01
C21 -1.825071452278E-01  3.098951040709E-01 -1.881099595067E-01
C22  1.825071452278E-01 -1.901048959291E-01 -3.118900404933E-01
C23  1.825071452278E-01 -3.098951040709E-01  1.881099595067E-01
C24 -1.825071452278E-01  1.901048959291E-01  3.118900404933E-01
H25 -1.110329412344E-01  2.053129417014E-01 -9.976697796954E-02
H26  1.110329412344E-01 -2.946870582986E-01 -4.002330220305E-01
H27  1.110329412344E-01 -2.053129417014E-01  9.976697796954E-02
H28 -1.110329412344E-01  2.946870582986E-01  4.002330220305E-01
C29 -3.162992687695E-01  2.295724048889E-01 -2.614916098647E-01
C30  3.162992687695E-01 -2.704275951111E-01 -2.385083901353E-01
C31  3.162992687695E-01 -2.295724048889E-01  2.614916098647E-01
C32 -3.162992687695E-01  2.704275951111E-01  2.385083901353E-01
H33 -3.560090543522E-01  6.679629098673E-02 -2.254311723325E-01
H34  3.560090543522E-01 -4.332037090133E-01 -2.745688276675E-01
H35  3.560090543522E-01 -6.679629098673E-02  2.254311723325E-01
H36 -3.560090543522E-01  4.332037090133E-01  2.745688276675E-01
C37 -4.100546416831E-01  3.624152062778E-01 -3.818845676043E-01
C38  4.100546416831E-01 -1.375847937222E-01 -1.181154323957E-01
C39  4.100546416831E-01 -3.624152062778E-01  3.818845676043E-01
C40 -4.100546416831E-01  1.375847937222E-01  1.181154323957E-01
C41 -4.533559681933E-01 -2.823418471321E-01  4.597561484408E-01
C42  4.533559681933E-01  2.176581528679E-01  4.024385155917E-02
C43  4.533559681933E-01  2.823418471321E-01 -4.597561484408E-01
C44 -4.533559681933E-01 -2.176581528679E-01 -4.024385155917E-02
H45 -4.159946845063E-01 -1.165560403315E-01  4.266331511991E-01
H46  4.159946845063E-01  3.834439596685E-01  7.336684880091E-02
H47  4.159946845063E-01  1.165560403315E-01 -4.266331511991E-01
H48 -4.159946845063E-01 -3.834439596685E-01 -7.336684880091E-02


#===END

data_OPT_STEP_6

_symmetry_space_group_name_H-M 'P 1'
_cell_length_a      9.14393276
_cell_length_b      6.10224140
_cell_length_c      7.82788520
_cell_angle_alpha   90.000000
_cell_angle_beta   98.109786
_cell_angle_gamma   90.000000

loop_
_atom_site_label
_atom_site_fract_x
_atom_site_fract_y
_atom_site_fract_z
C1 -3.622100885086E-01 -4.198502550876E-01 -4.220168273635E-01
C2  3.622100885086E-01  8.014974491238E-02 -7.798317263652E-02
C3  3.622100885086E-01  4.198502550876E-01  4.220168273635E-01
C4 -3.622100885086E-01 -8.014974491238E-02  7.798317263652E-02
C5 -2.219435085020E-01 -3.463540866157E-01 -3.410539672113E-01
C6  2.219435085020E-01  1.536459133843E-01 -1.589460327887E-01
C7  2.219435085020E-01  3.463540866157E-01  3.410539672113E-01
C8 -2.219435085020E-01 -1.536459133843E-01  1.589460327887E-01
H9 -1.891312771491E-01 -1.817394364965E-01 -3.674873767453E-01
H10  1.891312771491E-01  3.182605635035E-01 -1.325126232547E-01
H11  1.891312771491E-01  1.817394364965E-01  3.674873767453E-01
H12 -1.891312771491E-01 -3.182605635035E-01  1.325126232547E-01
C13 -1.347813793633E-01 -4.775625453938E-01 -2.281226568029E-01
C14  1.347813793633E-01  2.243745460616E-02 -2.718773431971E-01
C15  1.347813793633E-01  4.775625453938E-01  2.281226568029E-01
C16 -1.347813793633E-01 -2.243745460616E-02  2.718773431971E-01
H17 -2.944681896454E-02 -4.190897198979E-01 -1.690654322855E-01
H18  2.944681896454E-02  8.091028010207E-02 -3.309345677145E-01
H19  2.944681896454E-02  4.190897198979E-01  1.690654322855E-01
H20 -2.944681896454E-02 -8.091028010207E-02  3.309345677145E-01
C21 -1.859155736036E-01  3.154245799595E-01 -1.818780711431E-01
C22  1.859155736036E-01 -1.845754200405E-01 -3.181219288569E-01
C23  1.859155736036E-01 -3.154245799595E-01  1.818780711431E-01
C24 -1.859155736036E-01  1.845754200405E-01  3.181219288569E-01
H25 -1.195184198008E-01  2.188741005249E-01 -8.661002517773E-02
H26  1.195184198008E-01 -2.811258994751E-01 -4.133899748223E-01
H27  1.195184198008E-01 -2.188741005249E-01  8.661002517773E-02
H28 -1.195184198008E-01  2.811258994751E-01  4.133899748223E-01
C29 -3.151386030503E-01  2.318822853105E-01 -2.650850570050E-01
C30  3.151386030503E-01 -2.681177146895E-01 -2.349149429950E-01
C31  3.151386030503E-01 -2.318822853105E-01  2.650850570050E-01
C32 -3.151386030503E-01  2.681177146895E-01  2.349149429950E-01
H33 -3.487708297417E-01  6.425412197169E-02 -2.429318874698E-01
H34  3.487708297417E-01 -4.357458780283E-01 -2.570681125302E-01
H35  3.487708297417E-01 -6.425412197169E-02  2.429318874698E-01
H36 -3.487708297417E-01  4.357458780283E-01  2.570681125302E-01
C37 -4.105249287779E-01  3.652464209509E-01 -3.819834498908E-01
C38  4.105249287779E-01 -1.347535790491E-01 -1.180165501092E-01
C39  4.105249287779E-01 -3.652464209509E-01  3.819834498908E-01
C40 -4.105249287779E-01  1.347535790491E-01  1.180165501092E-01
C41 -4.559787534051E-01 -2.844305974510E-01  4.668378605449E-01
C42  4.559787534051E-01  2.155694025490E-01  3.316213945509E-02
C43  4.559787534051E-01  2.844305974510E-01 -4.668378605449E-01
C44 -4.559787534051E-01 -2.155694025490E-01 -3.316213945509E-02
H45 -4.228585666392E-01 -1.166653518607E-01  4.435673769903E-01
H46  4.228585666392E-01  3.833346481393E-01  5.643262300973E-02
H47  4.228585666392E-01  1.166653518607E-01 -4.435673769903E-01
H48 -4.228585666392E-01 -3.833346481393E-01 -5.643262300973E-02


#===END

data_OPT_STEP_7

_symmetry_space_group_name_H-M 'P 1'
_cell_length_a      9.18336664
_cell_length_b      5.91244195
_cell_length_c      7.98774022
_cell_angle_alpha   90.000000
_cell_angle_beta   98.942785
_cell_angle_gamma   90.000000

loop_
_atom_site_label
_atom_site_fract_x
_atom_site_fract_y
_atom_site_fract_z
C1 -3.632851215462E-01 -4.145145802577E-01 -4.208738978807E-01
C2  3.632851215462E-01  8.548541974232E-02 -7.912610211930E-02
C3  3.632851215462E-01  4.145145802577E-01  4.208738978807E-01
C4 -3.632851215462E-01 -8.548541974232E-02  7.912610211930E-02
C5 -2.242769287830E-01 -3.353505277789E-01 -3.383445861310E-01
C6  2.242769287830E-01  1.646494722211E-01 -1.616554138690E-01
C7  2.242769287830E-01  3.353505277789E-01  3.383445861310E-01
C8 -2.242769287830E-01 -1.646494722211E-01  1.616554138690E-01
H9 -1.902030345210E-01 -1.680500254777E-01 -3.668313866339E-01
H10  1.902030345210E-01  3.319499745223E-01 -1.331686133661E-01
H11  1.902030345210E-01  1.680500254777E-01  3.668313866339E-01
H12 -1.902030345210E-01 -3.319499745223E-01  1.331686133661E-01
C13 -1.375857010594E-01 -4.676375585178E-01 -2.239480334865E-01
C14  1.375857010594E-01  3.236244148217E-02 -2.760519665135E-01
C15  1.375857010594E-01  4.676375585178E-01  2.239480334865E-01
C16 -1.375857010594E-01 -3.236244148217E-02  2.760519665135E-01
H17 -3.286375162758E-02 -4.053183591588E-01 -1.636109899280E-01
H18  3.286375162758E-02  9.468164084119E-02 -3.363890100720E-01
H19  3.286375162758E-02  4.053183591588E-01  1.636109899280E-01
H20 -3.286375162758E-02 -9.468164084119E-02  3.363890100720E-01
C21 -1.839255207254E-01  3.116096022556E-01 -1.853782110471E-01
C22  1.839255207254E-01 -1.883903977444E-01 -3.146217889529E-01
C23  1.839255207254E-01 -3.116096022556E-01  1.853782110471E-01
C24 -1.839255207254E-01  1.883903977444E-01  3.146217889529E-01
H25 -1.138989962559E-01  2.087702796002E-01 -9.524636939488E-02
H26  1.138989962559E-01 -2.912297203998E-01 -4.047536306051E-01
H27  1.138989962559E-01 -2.087702796002E-01  9.524636939488E-02
H28 -1.138989962559E-01  2.912297203998E-01  4.047536306051E-01
C29 -3.163456744445E-01  2.299281135872E-01 -2.618557564911E-01
C30  3.163456744445E-01 -2.700718864128E-01 -2.381442435089E-01
C31  3.163456744445E-01 -2.299281135872E-01  2.618557564911E-01
C32 -3.163456744445E-01  2.700718864128E-01  2.381442435089E-01
H33 -3.538114065197E-01  6.430033032871E-02 -2.309136589580E-01
H34  3.538114065197E-01 -4.356996696713E-01 -2.690863410420E-01
H35  3.538114065197E-01 -6.430033032871E-02  2.309136589580E-01
H36 -3.538114065197E-01  4.356996696713E-01  2.690863410420E-01
C37 -4.107111588065E-01  3.635838147898E-01 -3.809684303230E-01
C38  4.107111588065E-01 -1.364161852102E-01 -1.190315696770E-01
C39  4.107111588065E-01 -3.635838147898E-01  3.809684303230E-01
C40 -4.107111588065E-01  1.364161852102E-01  1.190315696770E-01
C41 -4.538557494863E-01 -2.825267944562E-01  4.614898583351E-01
C42  4.538557494863E-01  2.174732055438E-01  3.851014166492E-02
C43  4.538557494863E-01  2.825267944562E-01 -4.614898583351E-01
C44 -4.538557494863E-01 -2.174732055438E-01 -3.851014166492E-02
H45 -4.177268278421E-01 -1.155209651439E-01  4.313506152456E-01
H46  4.177268278421E-01  3.844790348561E-01  6.864938475445E-02
H47  4.177268278421E-01  1.155209651439E-01 -4.313506152456E-01
H48 -4.177268278421E-01 -3.844790348561E-01 -6.864938475445E-02


#===END

data_OPT_STEP_8

_symmetry_space_group_name_H-M 'P 1'
_cell_length_a      9.11839118
_cell_length_b      5.90493173
_cell_length_c      7.91063233
_cell_angle_alpha   90.000000
_cell_angle_beta   98.251158
_cell_angle_gamma   90.000000

loop_
_atom_site_label
_atom_site_fract_x
_atom_site_fract_y
_atom_site_fract_z
C1 -3.629169009695E-01 -4.145172270022E-01 -4.207018616922E-01
C2  3.629169009695E-01  8.548277299779E-02 -7.929813830781E-02
C3  3.629169009695E-01  4.145172270022E-01  4.207018616922E-01
C4 -3.629169009695E-01 -8.548277299779E-02  7.929813830781E-02
C5 -2.229367408049E-01 -3.367072171866E-01 -3.393833486175E-01
C6  2.229367408049E-01  1.632927828134E-01 -1.606166513825E-01
C7  2.229367408049E-01  3.367072171866E-01  3.393833486175E-01
C8 -2.229367408049E-01 -1.632927828134E-01  1.606166513825E-01
H9 -1.887308796479E-01 -1.675572403973E-01 -3.677152757099E-01
H10  1.887308796479E-01  3.324427596027E-01 -1.322847242901E-01
H11  1.887308796479E-01  1.675572403973E-01  3.677152757099E-01
H12 -1.887308796479E-01 -3.324427596027E-01  1.322847242901E-01
C13 -1.365280732272E-01 -4.691696834964E-01 -2.245078138480E-01
C14  1.365280732272E-01  3.083031650360E-02 -2.754921861520E-01
C15  1.365280732272E-01  4.691696834964E-01  2.245078138480E-01
C16 -1.365280732272E-01 -3.083031650360E-02  2.754921861520E-01
H17 -3.082745947569E-02 -4.063343849744E-01 -1.638663054756E-01
H18  3.082745947569E-02  9.366561502557E-02 -3.361336945244E-01
H19  3.082745947569E-02  4.063343849744E-01  1.638663054756E-01
H20 -3.082745947569E-02 -9.366561502557E-02  3.361336945244E-01
C21 -1.849207833978E-01  3.123641841641E-01 -1.833777846876E-01
C22  1.849207833978E-01 -1.876358158359E-01 -3.166222153124E-01
C23  1.849207833978E-01 -3.123641841641E-01  1.833777846876E-01
C24 -1.849207833978E-01  1.876358158359E-01  3.166222153124E-01
H25 -1.149432765811E-01  2.089109061258E-01 -9.224793256889E-02
H26  1.149432765811E-01 -2.910890938742E-01 -4.077520674311E-01
H27  1.149432765811E-01 -2.089109061258E-01  9.224793256889E-02
H28 -1.149432765811E-01  2.910890938742E-01  4.077520674311E-01
C29 -3.180463080236E-01  2.315029338184E-01 -2.595214171406E-01
C30  3.180463080236E-01 -2.684970661816E-01 -2.404785828594E-01
C31  3.180463080236E-01 -2.315029338184E-01  2.595214171406E-01
C32 -3.180463080236E-01  2.684970661816E-01  2.404785828594E-01
H33 -3.548112238278E-01  6.351708068853E-02 -2.302210118496E-01
H34  3.548112238278E-01 -4.364829193115E-01 -2.697789881504E-01
H35  3.548112238278E-01 -6.351708068853E-02  2.302210118496E-01
H36 -3.548112238278E-01  4.364829193115E-01  2.697789881504E-01
C37 -4.104021922157E-01  3.625454740552E-01 -3.818006286765E-01
C38  4.104021922157E-01 -1.374545259448E-01 -1.181993713235E-01
C39  4.104021922157E-01 -3.625454740552E-01  3.818006286765E-01
C40 -4.104021922157E-01  1.374545259448E-01  1.181993713235E-01
C41 -4.533213696607E-01 -2.824190370466E-01  4.613920189710E-01
C42  4.533213696607E-01  2.175809629534E-01  3.860798102896E-02
C43  4.533213696607E-01  2.824190370466E-01 -4.613920189710E-01
C44 -4.533213696607E-01 -2.175809629534E-01 -3.860798102896E-02
H45 -4.161409529352E-01 -1.157117437440E-01  4.295338308300E-01
H46  4.161409529352E-01  3.842882562560E-01  7.046616917002E-02
H47  4.161409529352E-01  1.157117437440E-01 -4.295338308300E-01
H48 -4.161409529352E-01 -3.842882562560E-01 -7.046616917002E-02


#===END

data_OPT_STEP_9

_symmetry_space_group_name_H-M 'P 1'
_cell_length_a      9.09620170
_cell_length_b      5.84797948
_cell_length_c      7.90650184
_cell_angle_alpha   90.000000
_cell_angle_beta   98.136598
_cell_angle_gamma   90.000000

loop_
_atom_site_label
_atom_site_fract_x
_atom_site_fract_y
_atom_site_fract_z
C1 -3.631005304515E-01 -4.128241842076E-01 -4.199742665229E-01
C2  3.631005304515E-01  8.717581579239E-02 -8.002573347711E-02
C3  3.631005304515E-01  4.128241842076E-01  4.199742665229E-01
C4 -3.631005304515E-01 -8.717581579239E-02  8.002573347711E-02
C5 -2.228357395082E-01 -3.343078328056E-01 -3.389434952218E-01
C6  2.228357395082E-01  1.656921671944E-01 -1.610565047782E-01
C7  2.228357395082E-01  3.343078328056E-01  3.389434952218E-01
C8 -2.228357395082E-01 -1.656921671944E-01  1.610565047782E-01
H9 -1.881672175601E-01 -1.636700386658E-01 -3.680699450670E-01
H10  1.881672175601E-01  3.363299613342E-01 -1.319300549330E-01
H11  1.881672175601E-01  1.636700386658E-01  3.680699450670E-01
H12 -1.881672175601E-01 -3.363299613342E-01  1.319300549330E-01
C13 -1.363615570763E-01 -4.677848418362E-01 -2.238932014065E-01
C14  1.363615570763E-01  3.221515816382E-02 -2.761067985935E-01
C15  1.363615570763E-01  4.677848418362E-01  2.238932014065E-01
C16 -1.363615570763E-01 -3.221515816382E-02  2.761067985935E-01
H17 -3.042106909551E-02 -4.035676327771E-01 -1.625098960735E-01
H18  3.042106909551E-02  9.643236722291E-02 -3.374901039265E-01
H19  3.042106909551E-02  4.035676327771E-01  1.625098960735E-01
H20 -3.042106909551E-02 -9.643236722291E-02  3.374901039265E-01
C21 -1.840420414318E-01  3.102712901166E-01 -1.844288190646E-01
C22  1.840420414318E-01 -1.897287098834E-01 -3.155711809354E-01
C23  1.840420414318E-01 -3.102712901166E-01  1.844288190646E-01
C24 -1.840420414318E-01  1.897287098834E-01  3.155711809354E-01
H25 -1.137532665798E-01  2.053946518707E-01 -9.320888284687E-02
H26  1.137532665798E-01 -2.946053481293E-01 -4.067911171531E-01
H27  1.137532665798E-01 -2.053946518707E-01  9.320888284687E-02
H28 -1.137532665798E-01  2.946053481293E-01  4.067911171531E-01
C29 -3.167165295804E-01  2.275607913616E-01 -2.618793904354E-01
C30  3.167165295804E-01 -2.724392086384E-01 -2.381206095646E-01
C31  3.167165295804E-01 -2.275607913616E-01  2.618793904354E-01
C32 -3.167165295804E-01  2.724392086384E-01  2.381206095646E-01
H33 -3.526233028666E-01  5.647886691962E-02 -2.340529437441E-01
H34  3.526233028666E-01 -4.435211330804E-01 -2.659470562559E-01
H35  3.526233028666E-01 -5.647886691962E-02  2.340529437441E-01
H36 -3.526233028666E-01  4.435211330804E-01  2.659470562559E-01
C37 -4.099434086462E-01  3.610219151012E-01 -3.824978204875E-01
C38  4.099434086462E-01 -1.389780848988E-01 -1.175021795125E-01
C39  4.099434086462E-01 -3.610219151012E-01  3.824978204875E-01
C40 -4.099434086462E-01  1.389780848988E-01  1.175021795125E-01
C41 -4.541383627658E-01 -2.790143688416E-01  4.630483213958E-01
C42  4.541383627658E-01  2.209856311584E-01  3.695167860416E-02
C43  4.541383627658E-01  2.790143688416E-01 -4.630483213958E-01
C44 -4.541383627658E-01 -2.209856311584E-01 -3.695167860416E-02
H45 -4.180700983005E-01 -1.086288819049E-01  4.330857843876E-01
H46  4.180700983005E-01  3.913711180951E-01  6.691421561239E-02
H47  4.180700983005E-01  1.086288819049E-01 -4.330857843876E-01
H48 -4.180700983005E-01 -3.913711180951E-01 -6.691421561239E-02


#===END

data_OPT_STEP_10

_symmetry_space_group_name_H-M 'P 1'
_cell_length_a      9.09022143
_cell_length_b      5.84523264
_cell_length_c      7.90854378
_cell_angle_alpha   90.000000
_cell_angle_beta   98.140336
_cell_angle_gamma   90.000000

loop_
_atom_site_label
_atom_site_fract_x
_atom_site_fract_y
_atom_site_fract_z
C1 -3.627192337405E-01 -4.132740853501E-01 -4.203536316844E-01
C2  3.627192337405E-01  8.672591464993E-02 -7.964636831560E-02
C3  3.627192337405E-01  4.132740853501E-01  4.203536316844E-01
C4 -3.627192337405E-01 -8.672591464993E-02  7.964636831560E-02
C5 -2.222978891892E-01 -3.349161223698E-01 -3.393576077798E-01
C6  2.222978891892E-01  1.650838776302E-01 -1.606423922202E-01
C7  2.222978891892E-01  3.349161223698E-01  3.393576077798E-01
C8 -2.222978891892E-01 -1.650838776302E-01  1.606423922202E-01
H9 -1.874217425259E-01 -1.641707654578E-01 -3.689280939210E-01
H10  1.874217425259E-01  3.358292345422E-01 -1.310719060790E-01
H11  1.874217425259E-01  1.641707654578E-01  3.689280939210E-01
H12 -1.874217425259E-01 -3.358292345422E-01  1.310719060790E-01
C13 -1.360911779600E-01 -4.681813864239E-01 -2.238146447404E-01
C14  1.360911779600E-01  3.181861357614E-02 -2.761853552596E-01
C15  1.360911779600E-01  4.681813864239E-01  2.238146447404E-01
C16 -1.360911779600E-01 -3.181861357614E-02  2.761853552596E-01
H17 -2.988484318868E-02 -4.039339955249E-01 -1.622047011021E-01
H18  2.988484318868E-02  9.606600447514E-02 -3.377952988979E-01
H19  2.988484318868E-02  4.039339955249E-01  1.622047011021E-01
H20 -2.988484318868E-02 -9.606600447513E-02  3.377952988979E-01
C21 -1.841012979898E-01  3.100258118437E-01 -1.842295386450E-01
C22  1.841012979898E-01 -1.899741881563E-01 -3.157704613550E-01
C23  1.841012979898E-01 -3.100258118437E-01  1.842295386450E-01
C24 -1.841012979898E-01  1.899741881563E-01  3.157704613550E-01
H25 -1.140548823717E-01  2.051436348721E-01 -9.242740950279E-02
H26  1.140548823717E-01 -2.948563651279E-01 -4.075725904972E-01
H27  1.140548823717E-01 -2.051436348721E-01  9.242740950279E-02
H28 -1.140548823717E-01  2.948563651279E-01  4.075725904972E-01
C29 -3.169959219862E-01  2.276664140710E-01 -2.616276306151E-01
C30  3.169959219862E-01 -2.723335859290E-01 -2.383723693849E-01
C31  3.169959219862E-01 -2.276664140710E-01  2.616276306151E-01
C32 -3.169959219862E-01  2.723335859290E-01  2.383723693849E-01
H33 -3.534851878854E-01  5.722493710870E-02 -2.329150592692E-01
H34  3.534851878854E-01 -4.427750628913E-01 -2.670849407308E-01
H35  3.534851878854E-01 -5.722493710870E-02  2.329150592692E-01
H36 -3.534851878854E-01  4.427750628913E-01  2.670849407308E-01
C37 -4.103688010274E-01  3.616171890225E-01 -3.817949206251E-01
C38  4.103688010274E-01 -1.383828109775E-01 -1.182050793749E-01
C39  4.103688010274E-01 -3.616171890225E-01  3.817949206251E-01
C40 -4.103688010274E-01  1.383828109775E-01  1.182050793749E-01
C41 -4.534574490853E-01 -2.799049690841E-01  4.621231536334E-01
C42  4.534574490853E-01  2.200950309159E-01  3.787684636658E-02
C43  4.534574490853E-01  2.799049690841E-01 -4.621231536334E-01
C44 -4.534574490853E-01 -2.200950309159E-01 -3.787684636658E-02
H45 -4.172003366596E-01 -1.094805715048E-01  4.319093905130E-01
H46  4.172003366596E-01  3.905194284952E-01  6.809060948697E-02
H47  4.172003366596E-01  1.094805715048E-01 -4.319093905130E-01
H48 -4.172003366596E-01 -3.905194284952E-01 -6.809060948697E-02


#===END

data_OPT_STEP_11

_symmetry_space_group_name_H-M 'P 1'
_cell_length_a      9.08852452
_cell_length_b      5.85649527
_cell_length_c      7.94672733
_cell_angle_alpha   90.000000
_cell_angle_beta   98.381744
_cell_angle_gamma   90.000000

loop_
_atom_site_label
_atom_site_fract_x
_atom_site_fract_y
_atom_site_fract_z
C1 -3.621426155754E-01 -4.140634697190E-01 -4.206283246834E-01
C2  3.621426155754E-01  8.593653028102E-02 -7.937167531655E-02
C3  3.621426155754E-01  4.140634697190E-01  4.206283246834E-01
C4 -3.621426155754E-01 -8.593653028102E-02  7.937167531655E-02
C5 -2.215738855679E-01 -3.358702307305E-01 -3.391866315793E-01
C6  2.215738855679E-01  1.641297692695E-01 -1.608133684207E-01
C7  2.215738855679E-01  3.358702307305E-01  3.391866315793E-01
C8 -2.215738855679E-01 -1.641297692695E-01  1.608133684207E-01
H9 -1.862495853998E-01 -1.658915046156E-01 -3.698115192381E-01
H10  1.862495853998E-01  3.341084953844E-01 -1.301884807619E-01
H11  1.862495853998E-01  1.658915046156E-01  3.698115192381E-01
H12 -1.862495853998E-01 -3.341084953844E-01  1.301884807619E-01
C13 -1.355771722265E-01 -4.690471222066E-01 -2.234730252402E-01
C14  1.355771722265E-01  3.095287779343E-02 -2.765269747598E-01
C15  1.355771722265E-01  4.690471222066E-01  2.234730252402E-01
C16 -1.355771722265E-01 -3.095287779343E-02  2.765269747598E-01
H17 -2.893109065853E-02 -4.053859923702E-01 -1.616765938662E-01
H18  2.893109065853E-02  9.461400762984E-02 -3.383234061338E-01
H19  2.893109065853E-02  4.053859923702E-01  1.616765938662E-01
H20 -2.893109065853E-02 -9.461400762984E-02  3.383234061338E-01
C21 -1.844755749464E-01  3.103970198977E-01 -1.833951922369E-01
C22  1.844755749464E-01 -1.896029801023E-01 -3.166048077631E-01
C23  1.844755749464E-01 -3.103970198977E-01  1.833951922369E-01
C24 -1.844755749464E-01  1.896029801023E-01  3.166048077631E-01
H25 -1.152833249137E-01  2.060027330710E-01 -9.043197885136E-02
H26  1.152833249137E-01 -2.939972669290E-01 -4.095680211486E-01
H27  1.152833249137E-01 -2.060027330710E-01  9.043197885136E-02
H28 -1.152833249137E-01  2.939972669290E-01  4.095680211486E-01
C29 -3.173041613827E-01  2.281606355210E-01 -2.616472504680E-01
C30  3.173041613827E-01 -2.718393644790E-01 -2.383527495320E-01
C31  3.173041613827E-01 -2.281606355210E-01  2.616472504680E-01
C32 -3.173041613827E-01  2.718393644790E-01  2.383527495320E-01
H33 -3.548598373802E-01  5.941958465519E-02 -2.316403745868E-01
H34  3.548598373802E-01 -4.405804153448E-01 -2.683596254132E-01
H35  3.548598373802E-01 -5.941958465519E-02  2.316403745868E-01
H36 -3.548598373802E-01  4.405804153448E-01  2.683596254132E-01
C37 -4.102462065795E-01  3.614716268946E-01 -3.823197590307E-01
C38  4.102462065795E-01 -1.385283731054E-01 -1.176802409693E-01
C39  4.102462065795E-01 -3.614716268946E-01  3.823197590307E-01
C40 -4.102462065795E-01  1.385283731054E-01  1.176802409693E-01
C41 -4.532644596294E-01 -2.802366033803E-01  4.626815366712E-01
C42  4.532644596294E-01  2.197633966197E-01  3.731846332878E-02
C43  4.532644596294E-01  2.802366033803E-01 -4.626815366712E-01
C44 -4.532644596294E-01 -2.197633966197E-01 -3.731846332878E-02
H45 -4.165311853611E-01 -1.105927803567E-01  4.320273761565E-01
H46  4.165311853611E-01  3.894072196433E-01  6.797262384352E-02
H47  4.165311853611E-01  1.105927803567E-01 -4.320273761565E-01
H48 -4.165311853611E-01 -3.894072196433E-01 -6.797262384352E-02


#===END

data_OPT_STEP_12

_symmetry_space_group_name_H-M 'P 1'
_cell_length_a      9.06353598
_cell_length_b      5.82361715
_cell_length_c      8.02063823
_cell_angle_alpha   90.000000
_cell_angle_beta   98.723630
_cell_angle_gamma   90.000000

loop_
_atom_site_label
_atom_site_fract_x
_atom_site_fract_y
_atom_site_fract_z
C1 -3.613443833813E-01 -4.141667807245E-01 -4.204937709961E-01
C2  3.613443833813E-01  8.583321927553E-02 -7.950622900389E-02
C3  3.613443833813E-01  4.141667807245E-01  4.204937709961E-01
C4 -3.613443833813E-01 -8.583321927553E-02  7.950622900389E-02
C5 -2.203630173028E-01 -3.356690915594E-01 -3.382312310586E-01
C6  2.203630173028E-01  1.643309084406E-01 -1.617687689414E-01
C7  2.203630173028E-01  3.356690915594E-01  3.382312310586E-01
C8 -2.203630173028E-01 -1.643309084406E-01  1.617687689414E-01
H9 -1.838107042561E-01 -1.665810156089E-01 -3.711021582205E-01
H10  1.838107042561E-01  3.334189843911E-01 -1.288978417795E-01
H11  1.838107042561E-01  1.665810156089E-01  3.711021582205E-01
H12 -1.838107042561E-01 -3.334189843911E-01  1.288978417795E-01
C13 -1.349999799041E-01 -4.691274795820E-01 -2.217739588390E-01
C14  1.349999799041E-01  3.087252041802E-02 -2.782260411610E-01
C15  1.349999799041E-01  4.691274795820E-01  2.217739588390E-01
C16 -1.349999799041E-01 -3.087252041802E-02  2.782260411610E-01
H17 -2.774149748171E-02 -4.058977007812E-01 -1.599245110083E-01
H18  2.774149748171E-02  9.410229921880E-02 -3.400754889917E-01
H19  2.774149748171E-02  4.058977007812E-01  1.599245110083E-01
H20 -2.774149748171E-02 -9.410229921880E-02  3.400754889917E-01
C21 -1.852061670006E-01  3.100305517254E-01 -1.812013107108E-01
C22  1.852061670006E-01 -1.899694482746E-01 -3.187986892892E-01
C23  1.852061670006E-01 -3.100305517254E-01  1.812013107108E-01
C24 -1.852061670006E-01  1.899694482746E-01  3.187986892892E-01
H25 -1.170747793252E-01  2.051842202003E-01 -8.726925645278E-02
H26  1.170747793252E-01 -2.948157797997E-01 -4.127307435472E-01
H27  1.170747793252E-01 -2.051842202003E-01  8.726925645278E-02
H28 -1.170747793252E-01  2.948157797997E-01  4.127307435472E-01
C29 -3.184815437048E-01  2.277733822040E-01 -2.600246274412E-01
C30  3.184815437048E-01 -2.722266177960E-01 -2.399753725588E-01
C31  3.184815437048E-01 -2.277733822040E-01  2.600246274412E-01
C32 -3.184815437048E-01  2.722266177960E-01  2.399753725588E-01
H33 -3.562094333694E-01  5.777702070529E-02 -2.312101500236E-01
H34  3.562094333694E-01 -4.422229792947E-01 -2.687898499764E-01
H35  3.562094333694E-01 -5.777702070529E-02  2.312101500236E-01
H36 -3.562094333694E-01  4.422229792947E-01  2.687898499764E-01
C37 -4.112767827252E-01  3.619318031364E-01 -3.808335267332E-01
C38  4.112767827252E-01 -1.380681968636E-01 -1.191664732668E-01
C39  4.112767827252E-01 -3.619318031364E-01  3.808335267332E-01
C40 -4.112767827252E-01  1.380681968636E-01  1.191664732668E-01
C41 -4.512361783848E-01 -2.813525449407E-01  4.607833632659E-01
C42  4.512361783848E-01  2.186474550593E-01  3.921663673412E-02
C43  4.512361783848E-01  2.813525449407E-01 -4.607833632659E-01
C44 -4.512361783848E-01 -2.186474550593E-01 -3.921663673412E-02
H45 -4.124755353042E-01 -1.135671393184E-01  4.276099679861E-01
H46  4.124755353042E-01  3.864328606816E-01  7.239003201389E-02
H47  4.124755353042E-01  1.135671393184E-01 -4.276099679861E-01
H48 -4.124755353042E-01 -3.864328606816E-01 -7.239003201389E-02


#===END

data_OPT_STEP_13

_symmetry_space_group_name_H-M 'P 1'
_cell_length_a      8.99427975
_cell_length_b      5.83910907
_cell_length_c      8.00280760
_cell_angle_alpha   90.000000
_cell_angle_beta   98.340476
_cell_angle_gamma   90.000000

loop_
_atom_site_label
_atom_site_fract_x
_atom_site_fract_y
_atom_site_fract_z
C1 -3.607902300157E-01 -4.143581429329E-01 -4.201310961535E-01
C2  3.607902300157E-01  8.564185706711E-02 -7.986890384647E-02
C3  3.607902300157E-01  4.143581429329E-01  4.201310961535E-01
C4 -3.607902300157E-01 -8.564185706711E-02  7.986890384647E-02
C5 -2.188868358004E-01 -3.367408664073E-01 -3.381564439939E-01
C6  2.188868358004E-01  1.632591335927E-01 -1.618435560061E-01
C7  2.188868358004E-01  3.367408664073E-01  3.381564439939E-01
C8 -2.188868358004E-01 -1.632591335927E-01  1.618435560061E-01
H9 -1.814774202525E-01 -1.688636963037E-01 -3.723423160619E-01
H10  1.814774202525E-01  3.311363036963E-01 -1.276576839381E-01
H11  1.814774202525E-01  1.688636963037E-01  3.723423160619E-01
H12 -1.814774202525E-01 -3.311363036963E-01  1.276576839381E-01
C13 -1.342517885982E-01 -4.694574117707E-01 -2.206266672005E-01
C14  1.342517885982E-01  3.054258822925E-02 -2.793733327995E-01
C15  1.342517885982E-01  4.694574117707E-01  2.206266672005E-01
C16 -1.342517885982E-01 -3.054258822925E-02  2.793733327995E-01
H17 -2.637813319034E-02 -4.073813397763E-01 -1.593122937880E-01
H18  2.637813319034E-02  9.261866022369E-02 -3.406877062120E-01
H19  2.637813319034E-02  4.073813397763E-01  1.593122937880E-01
H20 -2.637813319034E-02 -9.261866022369E-02  3.406877062120E-01
C21 -1.858848425442E-01  3.109334372931E-01 -1.787454384479E-01
C22  1.858848425442E-01 -1.890665627069E-01 -3.212545615521E-01
C23  1.858848425442E-01 -3.109334372931E-01  1.787454384479E-01
C24 -1.858848425442E-01  1.890665627069E-01  3.212545615521E-01
H25 -1.187058709633E-01  2.064795517802E-01 -8.396132475325E-02
H26  1.187058709633E-01 -2.935204482198E-01 -4.160386752467E-01
H27  1.187058709633E-01 -2.064795517802E-01  8.396132475325E-02
H28 -1.187058709633E-01  2.935204482198E-01  4.160386752467E-01
C29 -3.204887516092E-01  2.303920502210E-01 -2.562092243190E-01
C30  3.204887516092E-01 -2.696079497790E-01 -2.437907756810E-01
C31  3.204887516092E-01 -2.303920502210E-01  2.562092243190E-01
C32 -3.204887516092E-01  2.696079497790E-01  2.437907756810E-01
H33 -3.599802150003E-01  6.267653622760E-02 -2.253864185115E-01
H34  3.599802150003E-01 -4.373234637724E-01 -2.746135814885E-01
H35  3.599802150003E-01 -6.267653622760E-02  2.253864185115E-01
H36 -3.599802150003E-01  4.373234637724E-01  2.746135814885E-01
C37 -4.123055923508E-01  3.631674299834E-01 -3.790874751326E-01
C38  4.123055923508E-01 -1.368325700166E-01 -1.209125248674E-01
C39  4.123055923508E-01 -3.631674299834E-01  3.790874751326E-01
C40 -4.123055923508E-01  1.368325700166E-01  1.209125248674E-01
C41 -4.503119735215E-01 -2.817716878089E-01  4.605777307486E-01
C42  4.503119735215E-01  2.182283121911E-01  3.942226925139E-02
C43  4.503119735215E-01  2.817716878089E-01 -4.605777307486E-01
C44 -4.503119735215E-01 -2.182283121911E-01 -3.942226925139E-02
H45 -4.117359689944E-01 -1.132040770630E-01  4.289610665848E-01
H46  4.117359689944E-01  3.867959229370E-01  7.103893341516E-02
H47  4.117359689944E-01  1.132040770630E-01 -4.289610665848E-01
H48 -4.117359689944E-01 -3.867959229370E-01 -7.103893341516E-02


#===END

data_OPT_STEP_14

_symmetry_space_group_name_H-M 'P 1'
_cell_length_a      9.05115390
_cell_length_b      5.82380061
_cell_length_c      8.01905002
_cell_angle_alpha   90.000000
_cell_angle_beta   98.697545
_cell_angle_gamma   90.000000

loop_
_atom_site_label
_atom_site_fract_x
_atom_site_fract_y
_atom_site_fract_z
C1 -3.611318327833E-01 -4.142953634670E-01 -4.205164999570E-01
C2  3.611318327833E-01  8.570463653298E-02 -7.948350004302E-02
C3  3.611318327833E-01  4.142953634670E-01  4.205164999570E-01
C4 -3.611318327833E-01 -8.570463653298E-02  7.948350004302E-02
C5 -2.198438953894E-01 -3.361234313761E-01 -3.384333440640E-01
C6  2.198438953894E-01  1.638765686239E-01 -1.615666559360E-01
C7  2.198438953894E-01  3.361234313761E-01  3.384333440640E-01
C8 -2.198438953894E-01 -1.638765686239E-01  1.615666559360E-01
H9 -1.830466057640E-01 -1.673196373095E-01 -3.716947791279E-01
H10  1.830466057640E-01  3.326803626905E-01 -1.283052208721E-01
H11  1.830466057640E-01  1.673196373095E-01  3.716947791279E-01
H12 -1.830466057640E-01 -3.326803626905E-01  1.283052208721E-01
C13 -1.347100405212E-01 -4.693563510679E-01 -2.215437235602E-01
C14  1.347100405212E-01  3.064364893215E-02 -2.784562764398E-01
C15  1.347100405212E-01  4.693563510679E-01  2.215437235602E-01
C16 -1.347100405212E-01 -3.064364893215E-02  2.784562764398E-01
H17 -2.733467698389E-02 -4.063634680282E-01 -1.597555684041E-01
H18  2.733467698389E-02  9.363653197176E-02 -3.402444315959E-01
H19  2.733467698389E-02  4.063634680282E-01  1.597555684041E-01
H20 -2.733467698389E-02 -9.363653197176E-02  3.402444315959E-01
C21 -1.852884957631E-01  3.100775881318E-01 -1.805375518359E-01
C22  1.852884957631E-01 -1.899224118682E-01 -3.194624481641E-01
C23  1.852884957631E-01 -3.100775881318E-01  1.805375518359E-01
C24 -1.852884957631E-01  1.899224118682E-01  3.194624481641E-01
H25 -1.174290292512E-01  2.053174275980E-01 -8.630486290086E-02
H26  1.174290292512E-01 -2.946825724020E-01 -4.136951370991E-01
H27  1.174290292512E-01 -2.053174275980E-01  8.630486290086E-02
H28 -1.174290292512E-01  2.946825724020E-01  4.136951370991E-01
C29 -3.189720702593E-01  2.283565668337E-01 -2.588888513573E-01
C30  3.189720702593E-01 -2.716434331663E-01 -2.411111486427E-01
C31  3.189720702593E-01 -2.283565668337E-01  2.588888513573E-01
C32 -3.189720702593E-01  2.716434331663E-01  2.411111486427E-01
H33 -3.572056211608E-01  5.898950993357E-02 -2.294171688088E-01
H34  3.572056211608E-01 -4.410104900664E-01 -2.705828311912E-01
H35  3.572056211608E-01 -5.898950993357E-02  2.294171688088E-01
H36 -3.572056211608E-01  4.410104900664E-01  2.705828311912E-01
C37 -4.115008730662E-01  3.621524906162E-01 -3.803694235258E-01
C38  4.115008730662E-01 -1.378475093838E-01 -1.196305764742E-01
C39  4.115008730662E-01 -3.621524906162E-01  3.803694235258E-01
C40 -4.115008730662E-01  1.378475093838E-01  1.196305764742E-01
C41 -4.510000757332E-01 -2.813993964710E-01  4.606525631904E-01
C42  4.510000757332E-01  2.186006035290E-01  3.934743680964E-02
C43  4.510000757332E-01  2.813993964710E-01 -4.606525631904E-01
C44 -4.510000757332E-01 -2.186006035290E-01 -3.934743680964E-02
H45 -4.123622350345E-01 -1.132604387247E-01  4.279636873719E-01
H46  4.123622350345E-01  3.867395612753E-01  7.203631262814E-02
H47  4.123622350345E-01  1.132604387247E-01 -4.279636873719E-01
H48 -4.123622350345E-01 -3.867395612753E-01 -7.203631262814E-02


#===END

data_OPT_STEP_15

_symmetry_space_group_name_H-M 'P 1'
_cell_length_a      9.06902292
_cell_length_b      5.81199063
_cell_length_c      8.02390184
_cell_angle_alpha   90.000000
_cell_angle_beta   99.049539
_cell_angle_gamma   90.000000

loop_
_atom_site_label
_atom_site_fract_x
_atom_site_fract_y
_atom_site_fract_z
C1 -3.605291627975E-01 -4.149072290360E-01 -4.214024832721E-01
C2  3.605291627975E-01  8.509277096401E-02 -7.859751672794E-02
C3  3.605291627975E-01  4.149072290360E-01  4.214024832721E-01
C4 -3.605291627975E-01 -8.509277096401E-02  7.859751672794E-02
C5 -2.184727626185E-01 -3.376406078577E-01 -3.403679490129E-01
C6  2.184727626185E-01  1.623593921423E-01 -1.596320509871E-01
C7  2.184727626185E-01  3.376406078577E-01  3.403679490129E-01
C8 -2.184727626185E-01 -1.623593921423E-01  1.596320509871E-01
H9 -1.816817150477E-01 -1.683894587095E-01 -3.733125612032E-01
H10  1.816817150477E-01  3.316105412905E-01 -1.266874387968E-01
H11  1.816817150477E-01  1.683894587095E-01  3.733125612032E-01
H12 -1.816817150477E-01 -3.316105412905E-01  1.266874387968E-01
C13 -1.335312476261E-01 -4.702436322159E-01 -2.223278854453E-01
C14  1.335312476261E-01  2.975636778406E-02 -2.776721145547E-01
C15  1.335312476261E-01  4.702436322159E-01  2.223278854453E-01
C16 -1.335312476261E-01 -2.975636778406E-02  2.776721145547E-01
H17 -2.638031943387E-02 -4.069982049997E-01 -1.599952981727E-01
H18  2.638031943387E-02  9.300179500028E-02 -3.400047018273E-01
H19  2.638031943387E-02  4.069982049997E-01  1.599952981727E-01
H20 -2.638031943387E-02 -9.300179500028E-02  3.400047018273E-01
C21 -1.843383317538E-01  3.096400671646E-01 -1.802300076993E-01
C22  1.843383317538E-01 -1.903599328354E-01 -3.197699923007E-01
C23  1.843383317538E-01 -3.096400671646E-01  1.802300076993E-01
C24 -1.843383317538E-01  1.903599328354E-01  3.197699923007E-01
H25 -1.166623918720E-01  2.050707625658E-01 -8.536035572848E-02
H26  1.166623918720E-01 -2.949292374342E-01 -4.146396442715E-01
H27  1.166623918720E-01 -2.050707625658E-01  8.536035572848E-02
H28 -1.166623918720E-01  2.949292374342E-01  4.146396442715E-01
C29 -3.178461216039E-01  2.272994785535E-01 -2.591258202867E-01
C30  3.178461216039E-01 -2.727005214465E-01 -2.408741797133E-01
C31  3.178461216039E-01 -2.272994785535E-01  2.591258202867E-01
C32 -3.178461216039E-01  2.727005214465E-01  2.408741797133E-01
H33 -3.566428267608E-01  5.886158295302E-02 -2.282182584975E-01
H34  3.566428267608E-01 -4.411384170470E-01 -2.717817415025E-01
H35  3.566428267608E-01 -5.886158295302E-02  2.282182584975E-01
H36 -3.566428267608E-01  4.411384170470E-01  2.717817415025E-01
C37 -4.105695943078E-01  3.610130572936E-01 -3.812364839609E-01
C38  4.105695943078E-01 -1.389869427064E-01 -1.187635160391E-01
C39  4.105695943078E-01 -3.610130572936E-01  3.812364839609E-01
C40 -4.105695943078E-01  1.389869427064E-01  1.187635160391E-01
C41 -4.511687684558E-01 -2.811394628580E-01  4.602536375354E-01
C42  4.511687684558E-01  2.188605371420E-01  3.974636246463E-02
C43  4.511687684558E-01  2.811394628580E-01 -4.602536375354E-01
C44 -4.511687684558E-01 -2.188605371420E-01 -3.974636246463E-02
H45 -4.132480586712E-01 -1.119023034349E-01  4.284414501968E-01
H46  4.132480586712E-01  3.880976965651E-01  7.155854980322E-02
H47  4.132480586712E-01  1.119023034349E-01 -4.284414501968E-01
H48 -4.132480586712E-01 -3.880976965651E-01 -7.155854980322E-02


#===END

data_OPT_STEP_16

_symmetry_space_group_name_H-M 'P 1'
_cell_length_a      9.02369920
_cell_length_b      5.82229118
_cell_length_c      8.00723704
_cell_angle_alpha   90.000000
_cell_angle_beta   98.765204
_cell_angle_gamma   90.000000

loop_
_atom_site_label
_atom_site_fract_x
_atom_site_fract_y
_atom_site_fract_z
C1 -3.605818944994E-01 -4.140845894505E-01 -4.208019639580E-01
C2  3.605818944994E-01  8.591541054948E-02 -7.919803604198E-02
C3  3.605818944994E-01  4.140845894505E-01  4.208019639580E-01
C4 -3.605818944994E-01 -8.591541054948E-02  7.919803604198E-02
C5 -2.184977356635E-01 -3.359873955506E-01 -3.391898965204E-01
C6  2.184977356635E-01  1.640126044494E-01 -1.608101034796E-01
C7  2.184977356635E-01  3.359873955506E-01  3.391898965204E-01
C8 -2.184977356635E-01 -1.640126044494E-01  1.608101034796E-01
H9 -1.815802799907E-01 -1.665484824775E-01 -3.716941771845E-01
H10  1.815802799907E-01  3.334515175225E-01 -1.283058228155E-01
H11  1.815802799907E-01  1.665484824775E-01  3.716941771845E-01
H12 -1.815802799907E-01 -3.334515175225E-01  1.283058228155E-01
C13 -1.330678339013E-01 -4.689255254042E-01 -2.218067851135E-01
C14  1.330678339013E-01  3.107447459577E-02 -2.781932148865E-01
C15  1.330678339013E-01  4.689255254042E-01  2.218067851135E-01
C16 -1.330678339013E-01 -3.107447459577E-02  2.781932148865E-01
H17 -2.567775333183E-02 -4.058541601634E-01 -1.596904036085E-01
H18  2.567775333183E-02  9.414583983663E-02 -3.403095963915E-01
H19  2.567775333183E-02  4.058541601634E-01  1.596904036085E-01
H20 -2.567775333183E-02 -9.414583983663E-02  3.403095963915E-01
C21 -1.840667195364E-01  3.111039254806E-01 -1.796116275157E-01
C22  1.840667195364E-01 -1.888960745194E-01 -3.203883724843E-01
C23  1.840667195364E-01 -3.111039254806E-01  1.796116275157E-01
C24 -1.840667195364E-01  1.888960745194E-01  3.203883724843E-01
H25 -1.161158690810E-01  2.063306229610E-01 -8.523058531773E-02
H26  1.161158690810E-01 -2.936693770390E-01 -4.147694146823E-01
H27  1.161158690810E-01 -2.063306229610E-01  8.523058531773E-02
H28 -1.161158690810E-01  2.936693770390E-01  4.147694146823E-01
C29 -3.179216148926E-01  2.286336733123E-01 -2.583510734724E-01
C30  3.179216148926E-01 -2.713663266877E-01 -2.416489265276E-01
C31  3.179216148926E-01 -2.286336733123E-01  2.583510734724E-01
C32 -3.179216148926E-01  2.713663266877E-01  2.416489265276E-01
H33 -3.570888799846E-01  6.073165580760E-02 -2.269438072816E-01
H34  3.570888799846E-01 -4.392683441924E-01 -2.730561927184E-01
H35  3.570888799846E-01 -6.073165580760E-02  2.269438072816E-01
H36 -3.570888799846E-01  4.392683441924E-01  2.730561927184E-01
C37 -4.105868396832E-01  3.617133164892E-01 -3.808593558516E-01
C38  4.105868396832E-01 -1.382866835108E-01 -1.191406441484E-01
C39  4.105868396832E-01 -3.617133164892E-01  3.808593558516E-01
C40 -4.105868396832E-01  1.382866835108E-01  1.191406441484E-01
C41 -4.514713938253E-01 -2.804755451825E-01  4.609694864134E-01
C42  4.514713938253E-01  2.195244548175E-01  3.903051358664E-02
C43  4.514713938253E-01  2.804755451825E-01 -4.609694864134E-01
C44 -4.514713938253E-01 -2.195244548175E-01 -3.903051358664E-02
H45 -4.136378575252E-01 -1.110559342892E-01  4.294177840720E-01
H46  4.136378575252E-01  3.889440657108E-01  7.058221592804E-02
H47  4.136378575252E-01  1.110559342892E-01 -4.294177840720E-01
H48 -4.136378575252E-01 -3.889440657108E-01 -7.058221592804E-02


#===END

data_OPT_STEP_17

_symmetry_space_group_name_H-M 'P 1'
_cell_length_a      9.02301874
_cell_length_b      5.80734591
_cell_length_c      8.05168355
_cell_angle_alpha   90.000000
_cell_angle_beta   99.124843
_cell_angle_gamma   90.000000

loop_
_atom_site_label
_atom_site_fract_x
_atom_site_fract_y
_atom_site_fract_z
C1 -3.604925060137E-01 -4.135156183748E-01 -4.202018088571E-01
C2  3.604925060137E-01  8.648438162522E-02 -7.979819114288E-02
C3  3.604925060137E-01  4.135156183748E-01  4.202018088571E-01
C4 -3.604925060137E-01 -8.648438162522E-02  7.979819114288E-02
C5 -2.181605094927E-01 -3.351638134274E-01 -3.383503702909E-01
C6  2.181605094927E-01  1.648361865726E-01 -1.616496297091E-01
C7  2.181605094927E-01  3.351638134274E-01  3.383503702909E-01
C8 -2.181605094927E-01 -1.648361865726E-01  1.616496297091E-01
H9 -1.808753174165E-01 -1.657197977623E-01 -3.710240387667E-01
H10  1.808753174165E-01  3.342802022377E-01 -1.289759612333E-01
H11  1.808753174165E-01  1.657197977623E-01  3.710240387667E-01
H12 -1.808753174165E-01 -3.342802022377E-01  1.289759612333E-01
C13 -1.326560242035E-01 -4.679979472117E-01 -2.207026121317E-01
C14  1.326560242035E-01  3.200205278833E-02 -2.792973878683E-01
C15  1.326560242035E-01  4.679979472117E-01  2.207026121317E-01
C16 -1.326560242035E-01 -3.200205278833E-02  2.792973878683E-01
H17 -2.504952191194E-02 -4.047852059812E-01 -1.583610716294E-01
H18  2.504952191194E-02  9.521479401882E-02 -3.416389283706E-01
H19  2.504952191194E-02  4.047852059812E-01  1.583610716294E-01
H20 -2.504952191194E-02 -9.521479401882E-02  3.416389283706E-01
C21 -1.835260156082E-01  3.113186039485E-01 -1.792914304574E-01
C22  1.835260156082E-01 -1.886813960515E-01 -3.207085695426E-01
C23  1.835260156082E-01 -3.113186039485E-01  1.792914304574E-01
C24 -1.835260156082E-01  1.886813960515E-01  3.207085695426E-01
H25 -1.153431530240E-01  2.062696756869E-01 -8.504909988302E-02
H26  1.153431530240E-01 -2.937303243131E-01 -4.149509001170E-01
H27  1.153431530240E-01 -2.062696756869E-01  8.504909988302E-02
H28 -1.153431530240E-01  2.937303243131E-01  4.149509001170E-01
C29 -3.181729313448E-01  2.295432695864E-01 -2.572891311645E-01
C30  3.181729313448E-01 -2.704567304136E-01 -2.427108688355E-01
C31  3.181729313448E-01 -2.295432695864E-01  2.572891311645E-01
C32 -3.181729313448E-01  2.704567304136E-01  2.427108688355E-01
H33 -3.568467145103E-01  6.040263013561E-02 -2.271638036962E-01
H34  3.568467145103E-01 -4.395973698644E-01 -2.728361963038E-01
H35  3.568467145103E-01 -6.040263013561E-02  2.271638036962E-01
H36 -3.568467145103E-01  4.395973698644E-01  2.728361963038E-01
C37 -4.107105229355E-01  3.622811529728E-01 -3.802192365567E-01
C38  4.107105229355E-01 -1.377188470272E-01 -1.197807634433E-01
C39  4.107105229355E-01 -3.622811529728E-01  3.802192365567E-01
C40 -4.107105229355E-01  1.377188470272E-01  1.197807634433E-01
C41 -4.516175470660E-01 -2.798179369898E-01  4.615801724112E-01
C42  4.516175470660E-01  2.201820630102E-01  3.841982758876E-02
C43  4.516175470660E-01  2.798179369898E-01 -4.615801724112E-01
C44 -4.516175470660E-01 -2.201820630102E-01 -3.841982758876E-02
H45 -4.135421139419E-01 -1.104289039812E-01  4.297329851003E-01
H46  4.135421139419E-01  3.895710960188E-01  7.026701489973E-02
H47  4.135421139419E-01  1.104289039812E-01 -4.297329851003E-01
H48 -4.135421139419E-01 -3.895710960188E-01 -7.026701489973E-02


#===END

data_OPT_STEP_18

_symmetry_space_group_name_H-M 'P 1'
_cell_length_a      9.01329611
_cell_length_b      5.81095693
_cell_length_c      8.04505083
_cell_angle_alpha   90.000000
_cell_angle_beta   99.100289
_cell_angle_gamma   90.000000

loop_
_atom_site_label
_atom_site_fract_x
_atom_site_fract_y
_atom_site_fract_z
C1 -3.603799281374E-01 -4.136132030083E-01 -4.200791972278E-01
C2  3.603799281374E-01  8.638679699168E-02 -7.992080277222E-02
C3  3.603799281374E-01  4.136132030083E-01  4.200791972278E-01
C4 -3.603799281374E-01 -8.638679699168E-02  7.992080277222E-02
C5 -2.180488064730E-01 -3.352011692523E-01 -3.379000396344E-01
C6  2.180488064730E-01  1.647988307477E-01 -1.620999603656E-01
C7  2.180488064730E-01  3.352011692523E-01  3.379000396344E-01
C8 -2.180488064730E-01 -1.647988307477E-01  1.620999603656E-01
H9 -1.806215031318E-01 -1.659647005357E-01 -3.706240286887E-01
H10  1.806215031318E-01  3.340352994643E-01 -1.293759713113E-01
H11  1.806215031318E-01  1.659647005357E-01  3.706240286887E-01
H12 -1.806215031318E-01 -3.340352994643E-01  1.293759713113E-01
C13 -1.324539192488E-01 -4.680987279854E-01 -2.202785398229E-01
C14  1.324539192488E-01  3.190127201460E-02 -2.797214601771E-01
C15  1.324539192488E-01  4.680987279854E-01  2.202785398229E-01
C16 -1.324539192488E-01 -3.190127201460E-02  2.797214601771E-01
H17 -2.469066179035E-02 -4.049789690705E-01 -1.580746204995E-01
H18  2.469066179035E-02  9.502103092951E-02 -3.419253795005E-01
H19  2.469066179035E-02  4.049789690705E-01  1.580746204995E-01
H20 -2.469066179035E-02 -9.502103092951E-02  3.419253795005E-01
C21 -1.833936159253E-01  3.112846081727E-01 -1.788923304874E-01
C22  1.833936159253E-01 -1.887153918273E-01 -3.211076695126E-01
C23  1.833936159253E-01 -3.112846081727E-01  1.788923304874E-01
C24 -1.833936159253E-01  1.887153918273E-01  3.211076695126E-01
H25 -1.152444387627E-01  2.064730087341E-01 -8.443151759559E-02
H26  1.152444387627E-01 -2.935269912659E-01 -4.155684824044E-01
H27  1.152444387627E-01 -2.064730087341E-01  8.443151759559E-02
H28 -1.152444387627E-01  2.935269912659E-01  4.155684824044E-01
C29 -3.180096100121E-01  2.293041334118E-01 -2.572683259342E-01
C30  3.180096100121E-01 -2.706958665882E-01 -2.427316740658E-01
C31  3.180096100121E-01 -2.293041334118E-01  2.572683259342E-01
C32 -3.180096100121E-01  2.706958665882E-01  2.427316740658E-01
H33 -3.566914533615E-01  6.015970694140E-02 -2.272594822506E-01
H34  3.566914533615E-01 -4.398402930586E-01 -2.727405177494E-01
H35  3.566914533615E-01 -6.015970694140E-02  2.272594822506E-01
H36 -3.566914533615E-01  4.398402930586E-01  2.727405177494E-01
C37 -4.106654065938E-01  3.621941573294E-01 -3.801660668654E-01
C38  4.106654065938E-01 -1.378058426706E-01 -1.198339331346E-01
C39  4.106654065938E-01 -3.621941573294E-01  3.801660668654E-01
C40 -4.106654065938E-01  1.378058426706E-01  1.198339331346E-01
C41 -4.513646413410E-01 -2.801462795799E-01  4.613109256694E-01
C42  4.513646413410E-01  2.198537204201E-01  3.868907433065E-02
C43  4.513646413410E-01  2.801462795799E-01 -4.613109256694E-01
C44 -4.513646413410E-01 -2.198537204201E-01 -3.868907433065E-02
H45 -4.133116006454E-01 -1.106857837760E-01  4.296796329824E-01
H46  4.133116006454E-01  3.893142162240E-01  7.032036701764E-02
H47  4.133116006454E-01  1.106857837760E-01 -4.296796329824E-01
H48 -4.133116006454E-01 -3.893142162240E-01 -7.032036701764E-02


#===END

data_OPT_STEP_19

_symmetry_space_group_name_H-M 'P 1'
_cell_length_a      8.99184658
_cell_length_b      5.81639785
_cell_length_c      8.03212298
_cell_angle_alpha   90.000000
_cell_angle_beta   99.082396
_cell_angle_gamma   90.000000

loop_
_atom_site_label
_atom_site_fract_x
_atom_site_fract_y
_atom_site_fract_z
C1 -3.602429743743E-01 -4.135427752738E-01 -4.196098471810E-01
C2  3.602429743743E-01  8.645722472623E-02 -8.039015281897E-02
C3  3.602429743743E-01  4.135427752738E-01  4.196098471810E-01
C4 -3.602429743743E-01 -8.645722472623E-02  8.039015281897E-02
C5 -2.175088695513E-01 -3.355575624380E-01 -3.374822772247E-01
C6  2.175088695513E-01  1.644424375620E-01 -1.625177227753E-01
C7  2.175088695513E-01  3.355575624380E-01  3.374822772247E-01
C8 -2.175088695513E-01 -1.644424375620E-01  1.625177227753E-01
H9 -1.798711166983E-01 -1.665335236134E-01 -3.700916489875E-01
H10  1.798711166983E-01  3.334664763866E-01 -1.299083510125E-01
H11  1.798711166983E-01  1.665335236134E-01  3.700916489875E-01
H12 -1.798711166983E-01 -3.334664763866E-01  1.299083510125E-01
C13 -1.318590763431E-01 -4.682166860986E-01 -2.195200285181E-01
C14  1.318590763431E-01  3.178331390137E-02 -2.804799714819E-01
C15  1.318590763431E-01  4.682166860986E-01  2.195200285181E-01
C16 -1.318590763431E-01 -3.178331390137E-02  2.804799714819E-01
H17 -2.379707116712E-02 -4.051893184406E-01 -1.574349454744E-01
H18  2.379707116712E-02  9.481068155939E-02 -3.425650545256E-01
H19  2.379707116712E-02  4.051893184406E-01  1.574349454744E-01
H20 -2.379707116712E-02 -9.481068155939E-02  3.425650545256E-01
C21 -1.829778519117E-01  3.114405249182E-01 -1.779745492766E-01
C22  1.829778519117E-01 -1.885594750818E-01 -3.220254507234E-01
C23  1.829778519117E-01 -3.114405249182E-01  1.779745492766E-01
C24 -1.829778519117E-01  1.885594750818E-01  3.220254507234E-01
H25 -1.147016064301E-01  2.069527334955E-01 -8.325155423013E-02
H26  1.147016064301E-01 -2.930472665045E-01 -4.167484457699E-01
H27  1.147016064301E-01 -2.069527334955E-01  8.325155423013E-02
H28 -1.147016064301E-01  2.930472665045E-01  4.167484457699E-01
C29 -3.175727189632E-01  2.290127774653E-01 -2.570838917187E-01
C30  3.175727189632E-01 -2.709872225347E-01 -2.429161082813E-01
C31  3.175727189632E-01 -2.290127774653E-01  2.570838917187E-01
C32 -3.175727189632E-01  2.709872225347E-01  2.429161082813E-01
H33 -3.564173559282E-01  6.009967193291E-02 -2.269490910811E-01
H34  3.564173559282E-01 -4.399003280671E-01 -2.730509089189E-01
H35  3.564173559282E-01 -6.009967193291E-02  2.269490910811E-01
H36 -3.564173559282E-01  4.399003280671E-01  2.730509089189E-01
C37 -4.105510580673E-01  3.621795584358E-01 -3.799238580820E-01
C38  4.105510580673E-01 -1.378204415642E-01 -1.200761419180E-01
C39  4.105510580673E-01 -3.621795584358E-01  3.799238580820E-01
C40 -4.105510580673E-01  1.378204415642E-01  1.200761419180E-01
C41 -4.511924091273E-01 -2.803035530446E-01  4.613015556082E-01
C42  4.511924091273E-01  2.196964469554E-01  3.869844439182E-02
C43  4.511924091273E-01  2.803035530446E-01 -4.613015556082E-01
C44 -4.511924091273E-01 -2.196964469554E-01 -3.869844439182E-02
H45 -4.127977697271E-01 -1.113462994946E-01  4.293109069580E-01
H46  4.127977697271E-01  3.886537005054E-01  7.068909304202E-02
H47  4.127977697271E-01  1.113462994946E-01 -4.293109069580E-01
H48 -4.127977697271E-01 -3.886537005054E-01 -7.068909304202E-02


#===END

data_OPT_STEP_20

_symmetry_space_group_name_H-M 'P 1'
_cell_length_a      8.96923253
_cell_length_b      5.79859004
_cell_length_c      8.04120679
_cell_angle_alpha   90.000000
_cell_angle_beta   99.380060
_cell_angle_gamma   90.000000

loop_
_atom_site_label
_atom_site_fract_x
_atom_site_fract_y
_atom_site_fract_z
C1 -3.595259523668E-01 -4.137251222739E-01 -4.195905753115E-01
C2  3.595259523668E-01  8.627487772612E-02 -8.040942468853E-02
C3  3.595259523668E-01  4.137251222739E-01  4.195905753115E-01
C4 -3.595259523668E-01 -8.627487772612E-02  8.040942468853E-02
C5 -2.166611483204E-01 -3.349543414273E-01 -3.361950374204E-01
C6  2.166611483204E-01  1.650456585727E-01 -1.638049625796E-01
C7  2.166611483204E-01  3.349543414273E-01  3.361950374204E-01
C8 -2.166611483204E-01 -1.650456585727E-01  1.638049625796E-01
H9 -1.785757489008E-01 -1.657928902588E-01 -3.685640948149E-01
H10  1.785757489008E-01  3.342071097412E-01 -1.314359051851E-01
H11  1.785757489008E-01  1.657928902588E-01  3.685640948149E-01
H12 -1.785757489008E-01 -3.342071097412E-01  1.314359051851E-01
C13 -1.305796476356E-01 -4.678892755077E-01 -2.179533745125E-01
C14  1.305796476356E-01  3.211072449231E-02 -2.820466254875E-01
C15  1.305796476356E-01  4.678892755077E-01  2.179533745125E-01
C16 -1.305796476356E-01 -3.211072449231E-02  2.820466254875E-01
H17 -2.207310503159E-02 -4.043993608822E-01 -1.557228661134E-01
H18  2.207310503159E-02  9.560063911782E-02 -3.442771338866E-01
H19  2.207310503159E-02  4.043993608822E-01  1.557228661134E-01
H20 -2.207310503159E-02 -9.560063911782E-02  3.442771338866E-01
C21 -1.818580349836E-01  3.114162897582E-01 -1.762625507425E-01
C22  1.818580349836E-01 -1.885837102418E-01 -3.237374492575E-01
C23  1.818580349836E-01 -3.114162897582E-01  1.762625507425E-01
C24 -1.818580349836E-01  1.885837102418E-01  3.237374492575E-01
H25 -1.129799578851E-01  2.067921560493E-01 -8.147896956964E-02
H26  1.129799578851E-01 -2.932078439507E-01 -4.185210304304E-01
H27  1.129799578851E-01 -2.067921560493E-01  8.147896956964E-02
H28 -1.129799578851E-01  2.932078439507E-01  4.185210304304E-01
C29 -3.167270495034E-01  2.282891383501E-01 -2.562327194445E-01
C30  3.167270495034E-01 -2.717108616499E-01 -2.437672805555E-01
C31  3.167270495034E-01 -2.282891383501E-01  2.562327194445E-01
C32 -3.167270495034E-01  2.717108616499E-01  2.437672805555E-01
H33 -3.558274575262E-01  5.924454428639E-02 -2.257725714128E-01
H34  3.558274575262E-01 -4.407554557136E-01 -2.742274285872E-01
H35  3.558274575262E-01 -5.924454428639E-02  2.257725714128E-01
H36 -3.558274575262E-01  4.407554557136E-01  2.742274285872E-01
C37 -4.100508312042E-01  3.616108564100E-01 -3.797010812476E-01
C38  4.100508312042E-01 -1.383891435900E-01 -1.202989187524E-01
C39  4.100508312042E-01 -3.616108564100E-01  3.797010812476E-01
C40 -4.100508312042E-01  1.383891435900E-01  1.202989187524E-01
C41 -4.507728501003E-01 -2.802642243377E-01  4.608042660861E-01
C42  4.507728501003E-01  2.197357756623E-01  3.919573391387E-02
C43  4.507728501003E-01  2.802642243377E-01 -4.608042660861E-01
C44 -4.507728501003E-01 -2.197357756623E-01 -3.919573391387E-02
H45 -4.123778382405E-01 -1.107153046250E-01  4.291789310410E-01
H46  4.123778382405E-01  3.892846953750E-01  7.082106895903E-02
H47  4.123778382405E-01  1.107153046250E-01 -4.291789310410E-01
H48 -4.123778382405E-01 -3.892846953750E-01 -7.082106895903E-02


#===END

data_OPT_STEP_21

_symmetry_space_group_name_H-M 'P 1'
_cell_length_a      8.94149973
_cell_length_b      5.83113612
_cell_length_c      8.02710420
_cell_angle_alpha   90.000000
_cell_angle_beta   99.434231
_cell_angle_gamma   90.000000

loop_
_atom_site_label
_atom_site_fract_x
_atom_site_fract_y
_atom_site_fract_z
C1 -3.593543788282E-01 -4.136717925507E-01 -4.187750236668E-01
C2  3.593543788282E-01  8.632820744933E-02 -8.122497633317E-02
C3  3.593543788282E-01  4.136717925507E-01  4.187750236668E-01
C4 -3.593543788282E-01 -8.632820744933E-02  8.122497633317E-02
C5 -2.159901590420E-01 -3.353476630019E-01 -3.351565387663E-01
C6  2.159901590420E-01  1.646523369981E-01 -1.648434612337E-01
C7  2.159901590420E-01  3.353476630019E-01  3.351565387663E-01
C8 -2.159901590420E-01 -1.646523369981E-01  1.648434612337E-01
H9 -1.777847526815E-01 -1.668456331004E-01 -3.671484309345E-01
H10  1.777847526815E-01  3.331543668996E-01 -1.328515690655E-01
H11  1.777847526815E-01  1.668456331004E-01  3.671484309345E-01
H12 -1.777847526815E-01 -3.331543668996E-01  1.328515690655E-01
C13 -1.294873413428E-01 -4.679108829638E-01 -2.169018606243E-01
C14  1.294873413428E-01  3.208911703617E-02 -2.830981393757E-01
C15  1.294873413428E-01  4.679108829638E-01  2.169018606243E-01
C16 -1.294873413428E-01 -3.208911703617E-02  2.830981393757E-01
H17 -2.055402337077E-02 -4.048322639856E-01 -1.546101596544E-01
H18  2.055402337077E-02  9.516773601441E-02 -3.453898403456E-01
H19  2.055402337077E-02  4.048322639856E-01  1.546101596544E-01
H20 -2.055402337077E-02 -9.516773601441E-02  3.453898403456E-01
C21 -1.807112615930E-01  3.121483654321E-01 -1.756587942788E-01
C22  1.807112615930E-01 -1.878516345679E-01 -3.243412057212E-01
C23  1.807112615930E-01 -3.121483654321E-01  1.756587942788E-01
C24 -1.807112615930E-01  1.878516345679E-01  3.243412057212E-01
H25 -1.117353987665E-01  2.084294193224E-01 -8.034245552855E-02
H26  1.117353987665E-01 -2.915705806776E-01 -4.196575444714E-01
H27  1.117353987665E-01 -2.084294193224E-01  8.034245552855E-02
H28 -1.117353987665E-01  2.915705806776E-01  4.196575444714E-01
C29 -3.159757010167E-01  2.294439920069E-01 -2.559556700455E-01
C30  3.159757010167E-01 -2.705560079931E-01 -2.440443299545E-01
C31  3.159757010167E-01 -2.294439920069E-01  2.559556700455E-01
C32 -3.159757010167E-01  2.705560079931E-01  2.440443299545E-01
H33 -3.548558048322E-01  6.069749644990E-02 -2.262176908768E-01
H34  3.548558048322E-01 -4.393025035501E-01 -2.737823091232E-01
H35  3.548558048322E-01 -6.069749644990E-02  2.262176908768E-01
H36 -3.548558048322E-01  4.393025035501E-01  2.737823091232E-01
C37 -4.097211962780E-01  3.623280030483E-01 -3.794447209393E-01
C38  4.097211962780E-01 -1.376719969517E-01 -1.205552790607E-01
C39  4.097211962780E-01 -3.623280030483E-01  3.794447209393E-01
C40 -4.097211962780E-01  1.376719969517E-01  1.205552790607E-01
C41 -4.508234012968E-01 -2.811029966107E-01  4.611422597758E-01
C42  4.508234012968E-01  2.188970033893E-01  3.885774022416E-02
C43  4.508234012968E-01  2.811029966107E-01 -4.611422597758E-01
C44 -4.508234012968E-01 -2.188970033893E-01 -3.885774022416E-02
H45 -4.126277006050E-01 -1.118898323864E-01  4.301269594262E-01
H46  4.126277006050E-01  3.881101676136E-01  6.987304057385E-02
H47  4.126277006050E-01  1.118898323864E-01 -4.301269594262E-01
H48 -4.126277006050E-01 -3.881101676136E-01 -6.987304057385E-02


#===END

data_OPT_STEP_22

_symmetry_space_group_name_H-M 'P 1'
_cell_length_a      8.94464675
_cell_length_b      5.82519206
_cell_length_c      8.04915965
_cell_angle_alpha   90.000000
_cell_angle_beta   99.702840
_cell_angle_gamma   90.000000

loop_
_atom_site_label
_atom_site_fract_x
_atom_site_fract_y
_atom_site_fract_z
C1 -3.594684971161E-01 -4.133637963890E-01 -4.178538260033E-01
C2  3.594684971161E-01  8.663620361097E-02 -8.214617399670E-02
C3  3.594684971161E-01  4.133637963890E-01  4.178538260033E-01
C4 -3.594684971161E-01 -8.663620361097E-02  8.214617399670E-02
C5 -2.157761377606E-01 -3.354603028527E-01 -3.341849226042E-01
C6  2.157761377606E-01  1.645396971473E-01 -1.658150773958E-01
C7  2.157761377606E-01  3.354603028527E-01  3.341849226042E-01
C8 -2.157761377606E-01 -1.645396971473E-01  1.658150773958E-01
H9 -1.775190697528E-01 -1.669301810688E-01 -3.659172352362E-01
H10  1.775190697528E-01  3.330698189312E-01 -1.340827647638E-01
H11  1.775190697528E-01  1.669301810688E-01  3.659172352362E-01
H12 -1.775190697528E-01 -3.330698189312E-01  1.340827647638E-01
C13 -1.291891524029E-01 -4.681108696561E-01 -2.158650970351E-01
C14  1.291891524029E-01  3.188913034391E-02 -2.841349029649E-01
C15  1.291891524029E-01  4.681108696561E-01  2.158650970351E-01
C16 -1.291891524029E-01 -3.188913034391E-02  2.841349029649E-01
H17 -2.008575443356E-02 -4.048636626716E-01 -1.534256962418E-01
H18  2.008575443356E-02  9.513633732842E-02 -3.465743037582E-01
H19  2.008575443356E-02  4.048636626716E-01  1.534256962418E-01
H20 -2.008575443356E-02 -9.513633732842E-02  3.465743037582E-01
C21 -1.805653551766E-01  3.120277622443E-01 -1.747616241967E-01
C22  1.805653551766E-01 -1.879722377557E-01 -3.252383758033E-01
C23  1.805653551766E-01 -3.120277622443E-01  1.747616241967E-01
C24 -1.805653551766E-01  1.879722377557E-01  3.252383758033E-01
H25 -1.111996818791E-01  2.080235735079E-01 -7.973401755200E-02
H26  1.111996818791E-01 -2.919764264921E-01 -4.202659824480E-01
H27  1.111996818791E-01 -2.080235735079E-01  7.973401755200E-02
H28 -1.111996818791E-01  2.919764264921E-01  4.202659824480E-01
C29 -3.161056769291E-01  2.295622720369E-01 -2.552546260878E-01
C30  3.161056769291E-01 -2.704377279631E-01 -2.447453739122E-01
C31  3.161056769291E-01 -2.295622720369E-01  2.552546260878E-01
C32 -3.161056769291E-01  2.704377279631E-01  2.447453739122E-01
H33 -3.551957943358E-01  6.096816642516E-02 -2.254864046472E-01
H34  3.551957943358E-01 -4.390318335748E-01 -2.745135953528E-01
H35  3.551957943358E-01 -6.096816642516E-02  2.254864046472E-01
H36 -3.551957943358E-01  4.390318335748E-01  2.745135953528E-01
C37 -4.098709779710E-01  3.624831684060E-01 -3.789294862680E-01
C38  4.098709779710E-01 -1.375168315940E-01 -1.210705137320E-01
C39  4.098709779710E-01 -3.624831684060E-01  3.789294862680E-01
C40 -4.098709779710E-01  1.375168315940E-01  1.210705137320E-01
C41 -4.508433176856E-01 -2.808512312844E-01  4.616997920268E-01
C42  4.508433176856E-01  2.191487687156E-01  3.830020797320E-02
C43  4.508433176856E-01  2.808512312844E-01 -4.616997920268E-01
C44 -4.508433176856E-01 -2.191487687156E-01 -3.830020797320E-02
H45 -4.124178862964E-01 -1.117942384457E-01  4.307128955040E-01
H46  4.124178862964E-01  3.882057615543E-01  6.928710449602E-02
H47  4.124178862964E-01  1.117942384457E-01 -4.307128955040E-01
H48 -4.124178862964E-01 -3.882057615543E-01 -6.928710449602E-02


#===END

data_OPT_STEP_23

_symmetry_space_group_name_H-M 'P 1'
_cell_length_a      8.93631044
_cell_length_b      5.84949654
_cell_length_c      7.99375001
_cell_angle_alpha   90.000000
_cell_angle_beta   99.752127
_cell_angle_gamma   90.000000

loop_
_atom_site_label
_atom_site_fract_x
_atom_site_fract_y
_atom_site_fract_z
C1 -3.586098314964E-01 -4.151000429212E-01 -4.184711707703E-01
C2  3.586098314964E-01  8.489995707878E-02 -8.152882922970E-02
C3  3.586098314964E-01  4.151000429212E-01  4.184711707703E-01
C4 -3.586098314964E-01 -8.489995707878E-02  8.152882922970E-02
C5 -2.146639049582E-01 -3.377337303296E-01 -3.342312903919E-01
C6  2.146639049582E-01  1.622662696704E-01 -1.657687096081E-01
C7  2.146639049582E-01  3.377337303296E-01  3.342312903919E-01
C8 -2.146639049582E-01 -1.622662696704E-01  1.657687096081E-01
H9 -1.766409715785E-01 -1.693953877476E-01 -3.651571194445E-01
H10  1.766409715785E-01  3.306046122524E-01 -1.348428805555E-01
H11  1.766409715785E-01  1.693953877476E-01  3.651571194445E-01
H12 -1.766409715785E-01 -3.306046122524E-01  1.348428805555E-01
C13 -1.281561565109E-01 -4.694316530799E-01 -2.147143844233E-01
C14  1.281561565109E-01  3.056834692005E-02 -2.852856155767E-01
C15  1.281561565109E-01  4.694316530799E-01  2.147143844233E-01
C16 -1.281561565109E-01 -3.056834692005E-02  2.852856155767E-01
H17 -1.894648091628E-02 -4.060703717086E-01 -1.517422714123E-01
H18  1.894648091628E-02  9.392962829143E-02 -3.482577285877E-01
H19  1.894648091628E-02  4.060703717086E-01  1.517422714123E-01
H20 -1.894648091628E-02 -9.392962829143E-02  3.482577285877E-01
C21 -1.788720386388E-01  3.105232127647E-01 -1.747003861565E-01
C22  1.788720386388E-01 -1.894767872353E-01 -3.252996138435E-01
C23  1.788720386388E-01 -3.105232127647E-01  1.747003861565E-01
C24 -1.788720386388E-01  1.894767872353E-01  3.252996138435E-01
H25 -1.089220413408E-01  2.069743260713E-01 -7.939826604208E-02
H26  1.089220413408E-01 -2.930256739287E-01 -4.206017339579E-01
H27  1.089220413408E-01 -2.069743260713E-01  7.939826604208E-02
H28 -1.089220413408E-01  2.930256739287E-01  4.206017339579E-01
C29 -3.147658133624E-01  2.287005846473E-01 -2.555522652803E-01
C30  3.147658133624E-01 -2.712994153527E-01 -2.444477347197E-01
C31  3.147658133624E-01 -2.287005846473E-01  2.555522652803E-01
C32 -3.147658133624E-01  2.712994153527E-01  2.444477347197E-01
H33 -3.534672354793E-01  6.013098290699E-02 -2.265243680262E-01
H34  3.534672354793E-01 -4.398690170930E-01 -2.734756319738E-01
H35  3.534672354793E-01 -6.013098290699E-02  2.265243680262E-01
H36 -3.534672354793E-01  4.398690170930E-01  2.734756319738E-01
C37 -4.091114522625E-01  3.618462738870E-01 -3.792504883554E-01
C38  4.091114522625E-01 -1.381537261130E-01 -1.207495116446E-01
C39  4.091114522625E-01 -3.618462738870E-01  3.792504883554E-01
C40 -4.091114522625E-01  1.381537261130E-01  1.207495116446E-01
C41 -4.512643761619E-01 -2.810164113477E-01  4.625035896218E-01
C42  4.512643761619E-01  2.189835886523E-01  3.749641037818E-02
C43  4.512643761619E-01  2.810164113477E-01 -4.625035896218E-01
C44 -4.512643761619E-01 -2.189835886523E-01 -3.749641037818E-02
H45 -4.121407645232E-01 -1.136773391389E-01  4.304150091682E-01
H46  4.121407645232E-01  3.863226608611E-01  6.958499083178E-02
H47  4.121407645232E-01  1.136773391389E-01 -4.304150091682E-01
H48 -4.121407645232E-01 -3.863226608611E-01 -6.958499083178E-02


#===END

data_OPT_STEP_24

_symmetry_space_group_name_H-M 'P 1'
_cell_length_a      8.94504904
_cell_length_b      5.83198111
_cell_length_c      8.03285521
_cell_angle_alpha   90.000000
_cell_angle_beta   99.684270
_cell_angle_gamma   90.000000

loop_
_atom_site_label
_atom_site_fract_x
_atom_site_fract_y
_atom_site_fract_z
C1 -3.593655326890E-01 -4.136558860573E-01 -4.179700420769E-01
C2  3.593655326890E-01  8.634411394270E-02 -8.202995792308E-02
C3  3.593655326890E-01  4.136558860573E-01  4.179700420769E-01
C4 -3.593655326890E-01 -8.634411394270E-02  8.202995792308E-02
C5 -2.156400381066E-01 -3.359018475369E-01 -3.342849657454E-01
C6  2.156400381066E-01  1.640981524631E-01 -1.657150342546E-01
C7  2.156400381066E-01  3.359018475369E-01  3.342849657454E-01
C8 -2.156400381066E-01 -1.640981524631E-01  1.657150342546E-01
H9 -1.774427168884E-01 -1.674664055204E-01 -3.658980145013E-01
H10  1.774427168884E-01  3.325335944796E-01 -1.341019854987E-01
H11  1.774427168884E-01  1.674664055204E-01  3.658980145013E-01
H12 -1.774427168884E-01 -3.325335944796E-01  1.341019854987E-01
C13 -1.290133947582E-01 -4.684110892740E-01 -2.158259509379E-01
C14  1.290133947582E-01  3.158891072595E-02 -2.841740490621E-01
C15  1.290133947582E-01  4.684110892740E-01  2.158259509379E-01
C16 -1.290133947582E-01 -3.158891072595E-02  2.841740490621E-01
H17 -1.992888179546E-02 -4.051505231332E-01 -1.533070424624E-01
H18  1.992888179546E-02  9.484947686685E-02 -3.466929575376E-01
H19  1.992888179546E-02  4.051505231332E-01  1.533070424624E-01
H20 -1.992888179546E-02 -9.484947686685E-02  3.466929575376E-01
C21 -1.802241662537E-01  3.117706910664E-01 -1.748632164585E-01
C22  1.802241662537E-01 -1.882293089336E-01 -3.251367835415E-01
C23  1.802241662537E-01 -3.117706910664E-01  1.748632164585E-01
C24 -1.802241662537E-01  1.882293089336E-01  3.251367835415E-01
H25 -1.107579278852E-01  2.079345104630E-01 -7.974489001273E-02
H26  1.107579278852E-01 -2.920654895370E-01 -4.202551099873E-01
H27  1.107579278852E-01 -2.079345104630E-01  7.974489001273E-02
H28 -1.107579278852E-01  2.920654895370E-01  4.202551099873E-01
C29 -3.157932328133E-01  2.294410412491E-01 -2.553775788328E-01
C30  3.157932328133E-01 -2.705589587509E-01 -2.446224211672E-01
C31  3.157932328133E-01 -2.294410412491E-01  2.553775788328E-01
C32 -3.157932328133E-01  2.705589587509E-01  2.446224211672E-01
H33 -3.547748661153E-01  6.089471404226E-02 -2.257192019627E-01
H34  3.547748661153E-01 -4.391052859577E-01 -2.742807980373E-01
H35  3.547748661153E-01 -6.089471404226E-02  2.257192019627E-01
H36 -3.547748661153E-01  4.391052859577E-01  2.742807980373E-01
C37 -4.097030968182E-01  3.624023261502E-01 -3.790097659993E-01
C38  4.097030968182E-01 -1.375976738498E-01 -1.209902340007E-01
C39  4.097030968182E-01 -3.624023261502E-01  3.790097659993E-01
C40 -4.097030968182E-01  1.375976738498E-01  1.209902340007E-01
C41 -4.509818242909E-01 -2.809286930076E-01  4.618228764209E-01
C42  4.509818242909E-01  2.190713069924E-01  3.817712357911E-02
C43  4.509818242909E-01  2.809286930076E-01 -4.618228764209E-01
C44 -4.509818242909E-01 -2.190713069924E-01 -3.817712357911E-02
H45 -4.124926458603E-01 -1.121933646658E-01  4.306444704146E-01
H46  4.124926458603E-01  3.878066353342E-01  6.935552958541E-02
H47  4.124926458603E-01  1.121933646658E-01 -4.306444704146E-01
H48 -4.124926458603E-01 -3.878066353342E-01 -6.935552958541E-02


#===END

data_OPT_STEP_25

_symmetry_space_group_name_H-M 'P 1'
_cell_length_a      8.93446053
_cell_length_b      5.83982694
_cell_length_c      8.03275178
_cell_angle_alpha   90.000000
_cell_angle_beta   99.709607
_cell_angle_gamma   90.000000

loop_
_atom_site_label
_atom_site_fract_x
_atom_site_fract_y
_atom_site_fract_z
C1 -3.592031188769E-01 -4.138985347052E-01 -4.178475707016E-01
C2  3.592031188769E-01  8.610146529479E-02 -8.215242929838E-02
C3  3.592031188769E-01  4.138985347052E-01  4.178475707016E-01
C4 -3.592031188769E-01 -8.610146529478E-02  8.215242929838E-02
C5 -2.154307072916E-01 -3.361221064671E-01 -3.337964220972E-01
C6  2.154307072916E-01  1.638778935329E-01 -1.662035779028E-01
C7  2.154307072916E-01  3.361221064671E-01  3.337964220972E-01
C8 -2.154307072916E-01 -1.638778935329E-01  1.662035779028E-01
H9 -1.772569128314E-01 -1.677870417888E-01 -3.651936268940E-01
H10  1.772569128314E-01  3.322129582112E-01 -1.348063731060E-01
H11  1.772569128314E-01  1.677870417888E-01  3.651936268940E-01
H12 -1.772569128314E-01 -3.322129582112E-01  1.348063731060E-01
C13 -1.287892338869E-01 -4.684405546078E-01 -2.152139759727E-01
C14  1.287892338869E-01  3.155944539220E-02 -2.847860240273E-01
C15  1.287892338869E-01  4.684405546078E-01  2.152139759727E-01
C16 -1.287892338869E-01 -3.155944539220E-02  2.847860240273E-01
H17 -1.957237926354E-02 -4.052780919405E-01 -1.525828234692E-01
H18  1.957237926354E-02  9.472190805950E-02 -3.474171765308E-01
H19  1.957237926354E-02  4.052780919405E-01  1.525828234692E-01
H20 -1.957237926354E-02 -9.472190805950E-02  3.474171765308E-01
C21 -1.799860323090E-01  3.118592467379E-01 -1.745603329910E-01
C22  1.799860323090E-01 -1.881407532621E-01 -3.254396670090E-01
C23  1.799860323090E-01 -3.118592467379E-01  1.745603329910E-01
C24 -1.799860323090E-01  1.881407532621E-01  3.254396670090E-01
H25 -1.103194432506E-01  2.079613228763E-01 -7.961194749256E-02
H26  1.103194432506E-01 -2.920386771237E-01 -4.203880525074E-01
H27  1.103194432506E-01 -2.079613228763E-01  7.961194749256E-02
H28 -1.103194432506E-01  2.920386771237E-01  4.203880525074E-01
C29 -3.156593469354E-01  2.296233391538E-01 -2.553235704870E-01
C30  3.156593469354E-01 -2.703766608462E-01 -2.446764295130E-01
C31  3.156593469354E-01 -2.296233391538E-01  2.553235704870E-01
C32 -3.156593469354E-01  2.703766608462E-01  2.446764295130E-01
H33 -3.546481707369E-01  6.118757591928E-02 -2.258763716542E-01
H34  3.546481707369E-01 -4.388124240807E-01 -2.741236283458E-01
H35  3.546481707369E-01 -6.118757591928E-02  2.258763716542E-01
H36 -3.546481707369E-01  4.388124240807E-01  2.741236283458E-01
C37 -4.096212120885E-01  3.624549269550E-01 -3.790193021862E-01
C38  4.096212120885E-01 -1.375450730450E-01 -1.209806978138E-01
C39  4.096212120885E-01 -3.624549269550E-01  3.790193021862E-01
C40 -4.096212120885E-01  1.375450730450E-01  1.209806978138E-01
C41 -4.509398484262E-01 -2.811471648132E-01  4.620487194203E-01
C42  4.509398484262E-01  2.188528351868E-01  3.795128057972E-02
C43  4.509398484262E-01  2.811471648132E-01 -4.620487194203E-01
C44 -4.509398484262E-01 -2.188528351868E-01 -3.795128057972E-02
H45 -4.124199931742E-01 -1.125323022894E-01  4.310986485361E-01
H46  4.124199931742E-01  3.874676977106E-01  6.890135146387E-02
H47  4.124199931742E-01  1.125323022894E-01 -4.310986485361E-01
H48 -4.124199931742E-01 -3.874676977106E-01 -6.890135146387E-02


#===END

data_OPT_STEP_26

_symmetry_space_group_name_H-M 'P 1'
_cell_length_a      8.93678290
_cell_length_b      5.84874960
_cell_length_c      8.01979875
_cell_angle_alpha   90.000000
_cell_angle_beta   99.924401
_cell_angle_gamma   90.000000

loop_
_atom_site_label
_atom_site_fract_x
_atom_site_fract_y
_atom_site_fract_z
C1 -3.590093632857E-01 -4.142953470951E-01 -4.174747970326E-01
C2  3.590093632857E-01  8.570465290486E-02 -8.252520296743E-02
C3  3.590093632857E-01  4.142953470951E-01  4.174747970326E-01
C4 -3.590093632857E-01 -8.570465290486E-02  8.252520296743E-02
C5 -2.150828402401E-01 -3.367792356978E-01 -3.329296010692E-01
C6  2.150828402401E-01  1.632207643022E-01 -1.670703989308E-01
C7  2.150828402401E-01  3.367792356978E-01  3.329296010692E-01
C8 -2.150828402401E-01 -1.632207643022E-01  1.670703989308E-01
H9 -1.769562079258E-01 -1.685640488983E-01 -3.639255476417E-01
H10  1.769562079258E-01  3.314359511017E-01 -1.360744523583E-01
H11  1.769562079258E-01  1.685640488983E-01  3.639255476417E-01
H12 -1.769562079258E-01 -3.314359511017E-01  1.360744523583E-01
C13 -1.280169954560E-01 -4.694207203420E-01 -2.144813097832E-01
C14  1.280169954560E-01  3.057927965802E-02 -2.855186902168E-01
C15  1.280169954560E-01  4.694207203420E-01  2.144813097832E-01
C16 -1.280169954560E-01 -3.057927965802E-02  2.855186902168E-01
H17 -1.872129185987E-02 -4.061492922144E-01 -1.514481992018E-01
H18  1.872129185987E-02  9.385070778561E-02 -3.485518007982E-01
H19  1.872129185987E-02  4.061492922144E-01  1.514481992018E-01
H20 -1.872129185987E-02 -9.385070778561E-02  3.485518007982E-01
C21 -1.790641406942E-01  3.110771868814E-01 -1.741162183631E-01
C22  1.790641406942E-01 -1.889228131186E-01 -3.258837816369E-01
C23  1.790641406942E-01 -3.110771868814E-01  1.741162183631E-01
C24 -1.790641406942E-01  1.889228131186E-01  3.258837816369E-01
H25 -1.091102899244E-01  2.072980064126E-01 -7.897821908741E-02
H26  1.091102899244E-01 -2.927019935874E-01 -4.210217809126E-01
H27  1.091102899244E-01 -2.072980064126E-01  7.897821908741E-02
H28 -1.091102899244E-01  2.927019935874E-01  4.210217809126E-01
C29 -3.150408221907E-01  2.293478593193E-01 -2.550497311499E-01
C30  3.150408221907E-01 -2.706521406807E-01 -2.449502688501E-01
C31  3.150408221907E-01 -2.293478593193E-01  2.550497311499E-01
C32 -3.150408221907E-01  2.706521406807E-01  2.449502688501E-01
H33 -3.540410157503E-01  6.121585734512E-02 -2.256474174802E-01
H34  3.540410157503E-01 -4.387841426549E-01 -2.743525825198E-01
H35  3.540410157503E-01 -6.121585734512E-02  2.256474174802E-01
H36 -3.540410157503E-01  4.387841426549E-01  2.743525825198E-01
C37 -4.093233814028E-01  3.623066836462E-01 -3.788809331755E-01
C38  4.093233814028E-01 -1.376933163538E-01 -1.211190668245E-01
C39  4.093233814028E-01 -3.623066836462E-01  3.788809331755E-01
C40 -4.093233814028E-01  1.376933163538E-01  1.211190668245E-01
C41 -4.510567088898E-01 -2.813568821099E-01  4.623576476846E-01
C42  4.510567088898E-01  2.186431178901E-01  3.764235231540E-02
C43  4.510567088898E-01  2.813568821099E-01 -4.623576476846E-01
C44 -4.510567088898E-01 -2.186431178901E-01 -3.764235231540E-02
H45 -4.125564348814E-01 -1.129532898155E-01  4.316204674606E-01
H46  4.125564348814E-01  3.870467101845E-01  6.837953253939E-02
H47  4.125564348814E-01  1.129532898155E-01 -4.316204674606E-01
H48 -4.125564348814E-01 -3.870467101845E-01 -6.837953253939E-02


#===END

data_OPT_STEP_27

_symmetry_space_group_name_H-M 'P 1'
_cell_length_a      8.93819708
_cell_length_b      5.84941996
_cell_length_c      8.02009249
_cell_angle_alpha   90.000000
_cell_angle_beta   99.899363
_cell_angle_gamma   90.000000

loop_
_atom_site_label
_atom_site_fract_x
_atom_site_fract_y
_atom_site_fract_z
C1 -3.589524858986E-01 -4.146994523361E-01 -4.175267584006E-01
C2  3.589524858986E-01  8.530054766388E-02 -8.247324159942E-02
C3  3.589524858986E-01  4.146994523361E-01  4.175267584006E-01
C4 -3.589524858986E-01 -8.530054766388E-02  8.247324159942E-02
C5 -2.151445285331E-01 -3.372475864583E-01 -3.326899607783E-01
C6  2.151445285331E-01  1.627524135417E-01 -1.673100392217E-01
C7  2.151445285331E-01  3.372475864583E-01  3.326899607783E-01
C8 -2.151445285331E-01 -1.627524135417E-01  1.673100392217E-01
H9 -1.771516935089E-01 -1.688778466042E-01 -3.634752661353E-01
H10  1.771516935089E-01  3.311221533958E-01 -1.365247338647E-01
H11  1.771516935089E-01  1.688778466042E-01  3.634752661353E-01
H12 -1.771516935089E-01 -3.311221533958E-01  1.365247338647E-01
C13 -1.282392936135E-01 -4.700414625032E-01 -2.142827657389E-01
C14  1.282392936135E-01  2.995853749682E-02 -2.857172342611E-01
C15  1.282392936135E-01  4.700414625032E-01  2.142827657389E-01
C16 -1.282392936135E-01 -2.995853749682E-02  2.857172342611E-01
H17 -1.902701817278E-02 -4.068859510793E-01 -1.510068544565E-01
H18  1.902701817278E-02  9.311404892068E-02 -3.489931455435E-01
H19  1.902701817278E-02  4.068859510793E-01  1.510068544565E-01
H20 -1.902701817278E-02 -9.311404892068E-02  3.489931455435E-01
C21 -1.793352187971E-01  3.103294021941E-01 -1.743185105696E-01
C22  1.793352187971E-01 -1.896705978059E-01 -3.256814894304E-01
C23  1.793352187971E-01 -3.103294021941E-01  1.743185105696E-01
C24 -1.793352187971E-01  1.896705978059E-01  3.256814894304E-01
H25 -1.094378557822E-01  2.060849455958E-01 -7.945879437051E-02
H26  1.094378557822E-01 -2.939150544042E-01 -4.205412056295E-01
H27  1.094378557822E-01 -2.060849455958E-01  7.945879437051E-02
H28 -1.094378557822E-01  2.939150544042E-01  4.205412056295E-01
C29 -3.153130153809E-01  2.288841265070E-01 -2.553449308238E-01
C30  3.153130153809E-01 -2.711158734930E-01 -2.446550691762E-01
C31  3.153130153809E-01 -2.288841265070E-01  2.553449308238E-01
C32 -3.153130153809E-01  2.711158734930E-01  2.446550691762E-01
H33 -3.543828388338E-01  6.074083972456E-02 -2.261520379584E-01
H34  3.543828388338E-01 -4.392591602754E-01 -2.738479620416E-01
H35  3.543828388338E-01 -6.074083972456E-02  2.261520379584E-01
H36 -3.543828388338E-01  4.392591602754E-01  2.738479620416E-01
C37 -4.094451408407E-01  3.620189829849E-01 -3.790720185757E-01
C38  4.094451408407E-01 -1.379810170151E-01 -1.209279814243E-01
C39  4.094451408407E-01 -3.620189829849E-01  3.790720185757E-01
C40 -4.094451408407E-01  1.379810170151E-01  1.209279814243E-01
C41 -4.509219395347E-01 -2.813953933574E-01  4.625649244316E-01
C42  4.509219395347E-01  2.186046066426E-01  3.743507556840E-02
C43  4.509219395347E-01  2.813953933574E-01 -4.625649244316E-01
C44 -4.509219395347E-01 -2.186046066426E-01 -3.743507556840E-02
H45 -4.123649095814E-01 -1.129313950503E-01  4.320761251949E-01
H46  4.123649095814E-01  3.870686049497E-01  6.792387480507E-02
H47  4.123649095814E-01  1.129313950503E-01 -4.320761251949E-01
H48 -4.123649095814E-01 -3.870686049497E-01 -6.792387480507E-02


#===END

data_OPT_STEP_28

_symmetry_space_group_name_H-M 'P 1'
_cell_length_a      8.93836641
_cell_length_b      5.85342158
_cell_length_c      8.01128175
_cell_angle_alpha   90.000000
_cell_angle_beta   99.899310
_cell_angle_gamma   90.000000

loop_
_atom_site_label
_atom_site_fract_x
_atom_site_fract_y
_atom_site_fract_z
C1 -3.588131628740E-01 -4.155790820552E-01 -4.171841737813E-01
C2  3.588131628740E-01  8.442091794478E-02 -8.281582621866E-02
C3  3.588131628740E-01  4.155790820552E-01  4.171841737813E-01
C4 -3.588131628740E-01 -8.442091794478E-02  8.281582621866E-02
C5 -2.150583483423E-01 -3.386905874722E-01 -3.316629686215E-01
C6  2.150583483423E-01  1.613094125278E-01 -1.683370313785E-01
C7  2.150583483423E-01  3.386905874722E-01  3.316629686215E-01
C8 -2.150583483423E-01 -1.613094125278E-01  1.683370313785E-01
H9 -1.771680149944E-01 -1.701391871183E-01 -3.619021368731E-01
H10  1.771680149944E-01  3.298608128817E-01 -1.380978631269E-01
H11  1.771680149944E-01  1.701391871183E-01  3.619021368731E-01
H12 -1.771680149944E-01 -3.298608128817E-01  1.380978631269E-01
C13 -1.283870554395E-01 -4.721264826868E-01 -2.134293205717E-01
C14  1.283870554395E-01  2.787351731317E-02 -2.865706794283E-01
C15  1.283870554395E-01  4.721264826868E-01  2.134293205717E-01
C16 -1.283870554395E-01 -2.787351731317E-02  2.865706794283E-01
H17 -1.928134186037E-02 -4.094050616769E-01 -1.494745297745E-01
H18  1.928134186037E-02  9.059493832310E-02 -3.505254702255E-01
H19  1.928134186037E-02  4.094050616769E-01  1.494745297745E-01
H20 -1.928134186037E-02 -9.059493832310E-02  3.505254702255E-01
C21 -1.797160822598E-01  3.081297599332E-01 -1.743701429125E-01
C22  1.797160822598E-01 -1.918702400668E-01 -3.256298570875E-01
C23  1.797160822598E-01 -3.081297599332E-01  1.743701429125E-01
C24 -1.797160822598E-01  1.918702400668E-01  3.256298570875E-01
H25 -1.100288795717E-01  2.028816205856E-01 -7.990628538666E-02
H26  1.100288795717E-01 -2.971183794144E-01 -4.200937146133E-01
H27  1.100288795717E-01 -2.028816205856E-01  7.990628538666E-02
H28 -1.100288795717E-01  2.971183794144E-01  4.200937146133E-01
C29 -3.157695600249E-01  2.274526414641E-01 -2.558735810448E-01
C30  3.157695600249E-01 -2.725473585359E-01 -2.441264189552E-01
C31  3.157695600249E-01 -2.274526414641E-01  2.558735810448E-01
C32 -3.157695600249E-01  2.725473585359E-01  2.441264189552E-01
H33 -3.550583190104E-01  5.933251452798E-02 -2.272238251470E-01
H34  3.550583190104E-01 -4.406674854720E-01 -2.727761748530E-01
H35  3.550583190104E-01 -5.933251452798E-02  2.272238251470E-01
H36 -3.550583190104E-01  4.406674854720E-01  2.727761748530E-01
C37 -4.096876034003E-01  3.612731671945E-01 -3.793638585606E-01
C38  4.096876034003E-01 -1.387268328055E-01 -1.206361414394E-01
C39  4.096876034003E-01 -3.612731671945E-01  3.793638585606E-01
C40 -4.096876034003E-01  1.387268328055E-01  1.206361414394E-01
C41 -4.505515727574E-01 -2.814956742937E-01  4.631790455358E-01
C42  4.505515727574E-01  2.185043257063E-01  3.682095446417E-02
C43  4.505515727574E-01  2.814956742937E-01 -4.631790455358E-01
C44 -4.505515727574E-01 -2.185043257063E-01 -3.682095446417E-02
H45 -4.117965301963E-01 -1.129760909846E-01  4.332896720904E-01
H46  4.117965301963E-01  3.870239090154E-01  6.671032790960E-02
H47  4.117965301963E-01  1.129760909846E-01 -4.332896720904E-01
H48 -4.117965301963E-01 -3.870239090154E-01 -6.671032790960E-02


#===END

data_OPT_STEP_29

_symmetry_space_group_name_H-M 'P 1'
_cell_length_a      8.94032614
_cell_length_b      5.85835983
_cell_length_c      7.99959841
_cell_angle_alpha   90.000000
_cell_angle_beta   99.946105
_cell_angle_gamma   90.000000

loop_
_atom_site_label
_atom_site_fract_x
_atom_site_fract_y
_atom_site_fract_z
C1 -3.587182155294E-01 -4.163008006315E-01 -4.166432471045E-01
C2  3.587182155294E-01  8.369919936850E-02 -8.335675289550E-02
C3  3.587182155294E-01  4.163008006315E-01  4.166432471045E-01
C4 -3.587182155294E-01 -8.369919936850E-02  8.335675289550E-02
C5 -2.148721854607E-01 -3.402135489400E-01 -3.306103689081E-01
C6  2.148721854607E-01  1.597864510600E-01 -1.693896310919E-01
C7  2.148721854607E-01  3.402135489400E-01  3.306103689081E-01
C8 -2.148721854607E-01 -1.597864510600E-01  1.693896310919E-01
H9 -1.768992960305E-01 -1.715986847321E-01 -3.602494758221E-01
H10  1.768992960305E-01  3.284013152679E-01 -1.397505241779E-01
H11  1.768992960305E-01  1.715986847321E-01  3.602494758221E-01
H12 -1.768992960305E-01 -3.284013152679E-01  1.397505241779E-01
C13 -1.283386386650E-01 -4.743937118187E-01 -2.126015367213E-01
C14  1.283386386650E-01  2.560628818126E-02 -2.873984632787E-01
C15  1.283386386650E-01  4.743937118187E-01  2.126015367213E-01
C16 -1.283386386650E-01 -2.560628818126E-02  2.873984632787E-01
H17 -1.930064064202E-02 -4.122152818736E-01 -1.479891367571E-01
H18  1.930064064202E-02  8.778471812642E-02 -3.520108632429E-01
H19  1.930064064202E-02  4.122152818736E-01  1.479891367571E-01
H20 -1.930064064202E-02 -8.778471812642E-02  3.520108632429E-01
C21 -1.799235075815E-01  3.058939737520E-01 -1.742833934184E-01
C22  1.799235075815E-01 -1.941060262480E-01 -3.257166065816E-01
C23  1.799235075815E-01 -3.058939737520E-01  1.742833934184E-01
C24 -1.799235075815E-01  1.941060262480E-01  3.257166065816E-01
H25 -1.105039350180E-01  1.998560134653E-01 -7.999452111322E-02
H26  1.105039350180E-01 -3.001439865347E-01 -4.200054788868E-01
H27  1.105039350180E-01 -1.998560134653E-01  7.999452111322E-02
H28 -1.105039350180E-01  3.001439865347E-01  4.200054788868E-01
C29 -3.160662185025E-01  2.259863000809E-01 -2.563093967584E-01
C30  3.160662185025E-01 -2.740136999191E-01 -2.436906032416E-01
C31  3.160662185025E-01 -2.259863000809E-01  2.563093967584E-01
C32 -3.160662185025E-01  2.740136999191E-01  2.436906032416E-01
H33 -3.555708467151E-01  5.793001266405E-02 -2.281511159112E-01
H34  3.555708467151E-01 -4.420699873360E-01 -2.718488840888E-01
H35  3.555708467151E-01 -5.793001266405E-02  2.281511159112E-01
H36 -3.555708467151E-01  4.420699873360E-01  2.718488840888E-01
C37 -4.098688617176E-01  3.605880233432E-01 -3.795566303336E-01
C38  4.098688617176E-01 -1.394119766568E-01 -1.204433696664E-01
C39  4.098688617176E-01 -3.605880233432E-01  3.795566303336E-01
C40 -4.098688617176E-01  1.394119766568E-01  1.204433696664E-01
C41 -4.502485987656E-01 -2.815823592540E-01  4.637965666237E-01
C42  4.502485987656E-01  2.184176407460E-01  3.620343337629E-02
C43  4.502485987656E-01  2.815823592540E-01 -4.637965666237E-01
C44 -4.502485987656E-01 -2.184176407460E-01 -3.620343337629E-02
H45 -4.112891494902E-01 -1.131271996791E-01  4.343541752634E-01
H46  4.112891494902E-01  3.868728003209E-01  6.564582473664E-02
H47  4.112891494902E-01  1.131271996791E-01 -4.343541752634E-01
H48 -4.112891494902E-01 -3.868728003209E-01 -6.564582473664E-02


#===END

data_OPT_STEP_30

_symmetry_space_group_name_H-M 'P 1'
_cell_length_a      8.94097191
_cell_length_b      5.86007910
_cell_length_c      7.99405992
_cell_angle_alpha   90.000000
_cell_angle_beta   99.991719
_cell_angle_gamma   90.000000

loop_
_atom_site_label
_atom_site_fract_x
_atom_site_fract_y
_atom_site_fract_z
C1 -3.586748748248E-01 -4.165635374431E-01 -4.162731336627E-01
C2  3.586748748248E-01  8.343646255688E-02 -8.372686633731E-02
C3  3.586748748248E-01  4.165635374431E-01  4.162731336627E-01
C4 -3.586748748248E-01 -8.343646255688E-02  8.372686633731E-02
C5 -2.146987853267E-01 -3.410015262747E-01 -3.300747567226E-01
C6  2.146987853267E-01  1.589984737253E-01 -1.699252432774E-01
C7  2.146987853267E-01  3.410015262747E-01  3.300747567226E-01
C8 -2.146987853267E-01 -1.589984737253E-01  1.699252432774E-01
H9 -1.764767587201E-01 -1.724558625133E-01 -3.593920284685E-01
H10  1.764767587201E-01  3.275441374867E-01 -1.406079715315E-01
H11  1.764767587201E-01  1.724558625133E-01  3.593920284685E-01
H12 -1.764767587201E-01 -3.275441374867E-01  1.406079715315E-01
C13 -1.282168696842E-01 -4.756141624983E-01 -2.121971291908E-01
C14  1.282168696842E-01  2.438583750171E-02 -2.878028708092E-01
C15  1.282168696842E-01  4.756141624983E-01  2.121971291908E-01
C16 -1.282168696842E-01 -2.438583750171E-02  2.878028708092E-01
H17 -1.915166131326E-02 -4.138294746017E-01 -1.473066443779E-01
H18  1.915166131326E-02  8.617052539834E-02 -3.526933556221E-01
H19  1.915166131326E-02  4.138294746017E-01  1.473066443779E-01
H20 -1.915166131326E-02 -8.617052539834E-02  3.526933556221E-01
C21 -1.799842683790E-01  3.047602571204E-01 -1.741423235611E-01
C22  1.799842683790E-01 -1.952397428796E-01 -3.258576764389E-01
C23  1.799842683790E-01 -3.047602571204E-01  1.741423235611E-01
C24 -1.799842683790E-01  1.952397428796E-01  3.258576764389E-01
H25 -1.107515664123E-01  1.984605464942E-01 -7.980013475215E-02
H26  1.107515664123E-01 -3.015394535058E-01 -4.201998652479E-01
H27  1.107515664123E-01 -1.984605464942E-01  7.980013475215E-02
H28 -1.107515664123E-01  3.015394535058E-01  4.201998652479E-01
C29 -3.161920481497E-01  2.252335113378E-01 -2.564562682531E-01
C30  3.161920481497E-01 -2.747664886622E-01 -2.435437317469E-01
C31  3.161920481497E-01 -2.252335113378E-01  2.564562682531E-01
C32 -3.161920481497E-01  2.747664886622E-01  2.435437317469E-01
H33 -3.558345723667E-01  5.721326561269E-02 -2.285249158702E-01
H34  3.558345723667E-01 -4.427867343873E-01 -2.714750841298E-01
H35  3.558345723667E-01 -5.721326561269E-02  2.285249158702E-01
H36 -3.558345723667E-01  4.427867343873E-01  2.714750841298E-01
C37 -4.099460372225E-01  3.602780984513E-01 -3.795990693289E-01
C38  4.099460372225E-01 -1.397219015487E-01 -1.204009306711E-01
C39  4.099460372225E-01 -3.602780984513E-01  3.795990693289E-01
C40 -4.099460372225E-01  1.397219015487E-01  1.204009306711E-01
C41 -4.501009601144E-01 -2.815995895574E-01  4.641070068307E-01
C42  4.501009601144E-01  2.184004104426E-01  3.589299316927E-02
C43  4.501009601144E-01  2.815995895574E-01 -4.641070068307E-01
C44 -4.501009601144E-01 -2.184004104426E-01 -3.589299316927E-02
H45 -4.110207893856E-01 -1.132173059537E-01  4.347994263895E-01
H46  4.110207893856E-01  3.867826940463E-01  6.520057361046E-02
H47  4.110207893856E-01  1.132173059537E-01 -4.347994263895E-01
H48 -4.110207893856E-01 -3.867826940463E-01 -6.520057361046E-02


#===END

data_OPT_STEP_31

_symmetry_space_group_name_H-M 'P 1'
_cell_length_a      8.94111405
_cell_length_b      5.86120517
_cell_length_c      7.99287873
_cell_angle_alpha   90.000000
_cell_angle_beta  100.012076
_cell_angle_gamma   90.000000

loop_
_atom_site_label
_atom_site_fract_x
_atom_site_fract_y
_atom_site_fract_z
C1 -3.586554555857E-01 -4.166026460881E-01 -4.161632844407E-01
C2  3.586554555857E-01  8.339735391190E-02 -8.383671555930E-02
C3  3.586554555857E-01  4.166026460881E-01  4.161632844407E-01
C4 -3.586554555857E-01 -8.339735391190E-02  8.383671555930E-02
C5 -2.146089344463E-01 -3.412400814014E-01 -3.299729371205E-01
C6  2.146089344463E-01  1.587599185986E-01 -1.700270628795E-01
C7  2.146089344463E-01  3.412400814014E-01  3.299729371205E-01
C8 -2.146089344463E-01 -1.587599185986E-01  1.700270628795E-01
H9 -1.761839116455E-01 -1.727837901729E-01 -3.591391476724E-01
H10  1.761839116455E-01  3.272162098271E-01 -1.408608523276E-01
H11  1.761839116455E-01  1.727837901729E-01  3.591391476724E-01
H12 -1.761839116455E-01 -3.272162098271E-01  1.408608523276E-01
C13 -1.281301675912E-01 -4.759870292280E-01 -2.121530921631E-01
C14  1.281301675912E-01  2.401297077200E-02 -2.878469078369E-01
C15  1.281301675912E-01  4.759870292280E-01  2.121530921631E-01
C16 -1.281301675912E-01 -2.401297077200E-02  2.878469078369E-01
H17 -1.901471168049E-02 -4.143962603096E-01 -1.472211174687E-01
H18  1.901471168049E-02  8.560373969036E-02 -3.527788825313E-01
H19  1.901471168049E-02  4.143962603096E-01  1.472211174687E-01
H20 -1.901471168049E-02 -8.560373969036E-02  3.527788825313E-01
C21 -1.799537698280E-01  3.044658071682E-01 -1.741211166403E-01
C22  1.799537698280E-01 -1.955341928318E-01 -3.258788833597E-01
C23  1.799537698280E-01 -3.044658071682E-01  1.741211166403E-01
C24 -1.799537698280E-01  1.955341928318E-01  3.258788833597E-01
H25 -1.107572309690E-01  1.981796589077E-01 -7.972792684917E-02
H26  1.107572309690E-01 -3.018203410923E-01 -4.202720731508E-01
H27  1.107572309690E-01 -1.981796589077E-01  7.972792684917E-02
H28 -1.107572309690E-01  3.018203410923E-01  4.202720731508E-01
C29 -3.161887211084E-01  2.250577975077E-01 -2.565031158457E-01
C30  3.161887211084E-01 -2.749422024923E-01 -2.434968841543E-01
C31  3.161887211084E-01 -2.250577975077E-01  2.565031158457E-01
C32 -3.161887211084E-01  2.749422024923E-01  2.434968841543E-01
H33 -3.558772350380E-01  5.707337170046E-02 -2.286240213509E-01
H34  3.558772350380E-01 -4.429266282995E-01 -2.713759786491E-01
H35  3.558772350380E-01 -5.707337170046E-02  2.286240213509E-01
H36 -3.558772350380E-01  4.429266282995E-01  2.713759786491E-01
C37 -4.099395683035E-01  3.602319251114E-01 -3.796075465221E-01
C38  4.099395683035E-01 -1.397680748886E-01 -1.203924534779E-01
C39  4.099395683035E-01 -3.602319251114E-01  3.796075465221E-01
C40 -4.099395683035E-01  1.397680748886E-01  1.203924534779E-01
C41 -4.500827366647E-01 -2.816236241769E-01  4.641897203138E-01
C42  4.500827366647E-01  2.183763758231E-01  3.581027968625E-02
C43  4.500827366647E-01  2.816236241769E-01 -4.641897203138E-01
C44 -4.500827366647E-01 -2.183763758231E-01 -3.581027968625E-02
H45 -4.109807297859E-01 -1.132956779844E-01  4.348765740550E-01
H46  4.109807297859E-01  3.867043220156E-01  6.512342594499E-02
H47  4.109807297859E-01  1.132956779844E-01 -4.348765740550E-01
H48 -4.109807297859E-01 -3.867043220156E-01 -6.512342594499E-02


#===END

data_OPT_STEP_32

_symmetry_space_group_name_H-M 'P 1'
_cell_length_a      8.94034029
_cell_length_b      5.86160640
_cell_length_c      7.99331455
_cell_angle_alpha   90.000000
_cell_angle_beta  100.014556
_cell_angle_gamma   90.000000

loop_
_atom_site_label
_atom_site_fract_x
_atom_site_fract_y
_atom_site_fract_z
C1 -3.586320766134E-01 -4.166272398872E-01 -4.161535912266E-01
C2  3.586320766134E-01  8.337276011278E-02 -8.384640877339E-02
C3  3.586320766134E-01  4.166272398872E-01  4.161535912266E-01
C4 -3.586320766134E-01 -8.337276011278E-02  8.384640877339E-02
C5 -2.145560137832E-01 -3.413377015965E-01 -3.299773680125E-01
C6  2.145560137832E-01  1.586622984035E-01 -1.700226319875E-01
C7  2.145560137832E-01  3.413377015965E-01  3.299773680125E-01
C8 -2.145560137832E-01 -1.586622984035E-01  1.700226319875E-01
H9 -1.759910046226E-01 -1.729485146898E-01 -3.590744910564E-01
H10  1.759910046226E-01  3.270514853102E-01 -1.409255089436E-01
H11  1.759910046226E-01  1.729485146898E-01  3.590744910564E-01
H12 -1.759910046226E-01 -3.270514853102E-01  1.409255089436E-01
C13 -1.280892767932E-01 -4.761282174888E-01 -2.121823293044E-01
C14  1.280892767932E-01  2.387178251116E-02 -2.878176706956E-01
C15  1.280892767932E-01  4.761282174888E-01  2.121823293044E-01
C16 -1.280892767932E-01 -2.387178251116E-02  2.878176706956E-01
H17 -1.891674423439E-02 -4.146416789755E-01 -1.472903964931E-01
H18  1.891674423439E-02  8.535832102450E-02 -3.527096035069E-01
H19  1.891674423439E-02  4.146416789755E-01  1.472903964931E-01
H20 -1.891674423439E-02 -8.535832102450E-02  3.527096035069E-01
C21 -1.799442711461E-01  3.043600703333E-01 -1.741465729583E-01
C22  1.799442711461E-01 -1.956399296667E-01 -3.258534270417E-01
C23  1.799442711461E-01 -3.043600703333E-01  1.741465729583E-01
C24 -1.799442711461E-01  1.956399296667E-01  3.258534270417E-01
H25 -1.107418328218E-01  1.981177945380E-01 -7.973396916624E-02
H26  1.107418328218E-01 -3.018822054620E-01 -4.202660308338E-01
H27  1.107418328218E-01 -1.981177945380E-01  7.973396916624E-02
H28 -1.107418328218E-01  3.018822054620E-01  4.202660308338E-01
C29 -3.162038968439E-01  2.250080074816E-01 -2.565305172229E-01
C30  3.162038968439E-01 -2.749919925184E-01 -2.434694827771E-01
C31  3.162038968439E-01 -2.250080074816E-01  2.565305172229E-01
C32 -3.162038968439E-01  2.749919925184E-01  2.434694827771E-01
H33 -3.559241195124E-01  5.704397512481E-02 -2.286733938916E-01
H34  3.559241195124E-01 -4.429560248752E-01 -2.713266061084E-01
H35  3.559241195124E-01 -5.704397512481E-02  2.286733938916E-01
H36 -3.559241195124E-01  4.429560248752E-01  2.713266061084E-01
C37 -4.099364528231E-01  3.602209953036E-01 -3.796224827642E-01
C38  4.099364528231E-01 -1.397790046964E-01 -1.203775172358E-01
C39  4.099364528231E-01 -3.602209953036E-01  3.796224827642E-01
C40 -4.099364528231E-01  1.397790046964E-01  1.203775172358E-01
C41 -4.500707157639E-01 -2.816382173334E-01  4.642199799222E-01
C42  4.500707157639E-01  2.183617826666E-01  3.578002007781E-02
C43  4.500707157639E-01  2.816382173334E-01 -4.642199799222E-01
C44 -4.500707157639E-01 -2.183617826666E-01 -3.578002007781E-02
H45 -4.109572007151E-01 -1.133314788892E-01  4.349010703145E-01
H46  4.109572007151E-01  3.866685211108E-01  6.509892968554E-02
H47  4.109572007151E-01  1.133314788892E-01 -4.349010703145E-01
H48 -4.109572007151E-01 -3.866685211108E-01 -6.509892968554E-02


#===END

data_OPT_STEP_33

_symmetry_space_group_name_H-M 'P 1'
_cell_length_a      8.94017117
_cell_length_b      5.86204896
_cell_length_c      7.99390946
_cell_angle_alpha   90.000000
_cell_angle_beta  100.010687
_cell_angle_gamma   90.000000

loop_
_atom_site_label
_atom_site_fract_x
_atom_site_fract_y
_atom_site_fract_z
C1 -3.586126142761E-01 -4.166697783125E-01 -4.161920041882E-01
C2  3.586126142761E-01  8.333022168749E-02 -8.380799581184E-02
C3  3.586126142761E-01  4.166697783125E-01  4.161920041882E-01
C4 -3.586126142761E-01 -8.333022168749E-02  8.380799581184E-02
C5 -2.145278590525E-01 -3.414212807007E-01 -3.300335624022E-01
C6  2.145278590525E-01  1.585787192993E-01 -1.699664375978E-01
C7  2.145278590525E-01  3.414212807007E-01  3.300335624022E-01
C8 -2.145278590525E-01 -1.585787192993E-01  1.699664375978E-01
H9 -1.758871394568E-01 -1.730735024851E-01 -3.590882527499E-01
H10  1.758871394568E-01  3.269264975149E-01 -1.409117472501E-01
H11  1.758871394568E-01  1.730735024851E-01  3.590882527499E-01
H12 -1.758871394568E-01 -3.269264975149E-01  1.409117472501E-01
C13 -1.280751311100E-01 -4.762387068731E-01 -2.122652206727E-01
C14  1.280751311100E-01  2.376129312690E-02 -2.877347793273E-01
C15  1.280751311100E-01  4.762387068731E-01  2.122652206727E-01
C16 -1.280751311100E-01 -2.376129312690E-02  2.877347793273E-01
H17 -1.886249422544E-02 -4.148200938425E-01 -1.474228755139E-01
H18  1.886249422544E-02  8.517990615749E-02 -3.525771244861E-01
H19  1.886249422544E-02  4.148200938425E-01  1.474228755139E-01
H20 -1.886249422544E-02 -8.517990615749E-02  3.525771244861E-01
C21 -1.799463955921E-01  3.042752209826E-01 -1.742303453507E-01
C22  1.799463955921E-01 -1.957247790174E-01 -3.257696546493E-01
C23  1.799463955921E-01 -3.042752209826E-01  1.742303453507E-01
C24 -1.799463955921E-01  1.957247790174E-01  3.257696546493E-01
H25 -1.107190441986E-01  1.980344486852E-01 -7.985160389452E-02
H26  1.107190441986E-01 -3.019655513148E-01 -4.201483961055E-01
H27  1.107190441986E-01 -1.980344486852E-01  7.985160389452E-02
H28 -1.107190441986E-01  3.019655513148E-01  4.201483961055E-01
C29 -3.162202361443E-01  2.249756169089E-01 -2.565863773198E-01
C30  3.162202361443E-01 -2.750243830911E-01 -2.434136226802E-01
C31  3.162202361443E-01 -2.249756169089E-01  2.565863773198E-01
C32 -3.162202361443E-01  2.750243830911E-01  2.434136226802E-01
H33 -3.559624804559E-01  5.703470262687E-02 -2.287387312185E-01
H34  3.559624804559E-01 -4.429652973731E-01 -2.712612687815E-01
H35  3.559624804559E-01 -5.703470262687E-02  2.287387312185E-01
H36 -3.559624804559E-01  4.429652973731E-01  2.712612687815E-01
C37 -4.099365791607E-01  3.602086983633E-01 -3.796544242045E-01
C38  4.099365791607E-01 -1.397913016367E-01 -1.203455757955E-01
C39  4.099365791607E-01 -3.602086983633E-01  3.796544242045E-01
C40 -4.099365791607E-01  1.397913016367E-01  1.203455757955E-01
C41 -4.500603032790E-01 -2.816624165450E-01  4.642273786122E-01
C42  4.500603032790E-01  2.183375834550E-01  3.577262138780E-02
C43  4.500603032790E-01  2.816624165450E-01 -4.642273786122E-01
C44 -4.500603032790E-01 -2.183375834550E-01 -3.577262138780E-02
H45 -4.109412202147E-01 -1.133688302437E-01  4.349126217878E-01
H46  4.109412202147E-01  3.866311697563E-01  6.508737821221E-02
H47  4.109412202147E-01  1.133688302437E-01 -4.349126217878E-01
H48 -4.109412202147E-01 -3.866311697563E-01 -6.508737821221E-02


#===END

data_OPT_STEP_34

_symmetry_space_group_name_H-M 'P 1'
_cell_length_a      8.94005546
_cell_length_b      5.86211426
_cell_length_c      7.99426878
_cell_angle_alpha   90.000000
_cell_angle_beta  100.008199
_cell_angle_gamma   90.000000

loop_
_atom_site_label
_atom_site_fract_x
_atom_site_fract_y
_atom_site_fract_z
C1 -3.585933812275E-01 -4.167284672470E-01 -4.162175174373E-01
C2  3.585933812275E-01  8.327153275297E-02 -8.378248256274E-02
C3  3.585933812275E-01  4.167284672470E-01  4.162175174373E-01
C4 -3.585933812275E-01 -8.327153275297E-02  8.378248256274E-02
C5 -2.144997686118E-01 -3.415210649572E-01 -3.300631663680E-01
C6  2.144997686118E-01  1.584789350428E-01 -1.699368336320E-01
C7  2.144997686118E-01  3.415210649572E-01  3.300631663680E-01
C8 -2.144997686118E-01 -1.584789350428E-01  1.699368336320E-01
H9 -1.758252090262E-01 -1.731965088531E-01 -3.591128341195E-01
H10  1.758252090262E-01  3.268034911469E-01 -1.408871658805E-01
H11  1.758252090262E-01  1.731965088531E-01  3.591128341195E-01
H12 -1.758252090262E-01 -3.268034911469E-01  1.408871658805E-01
C13 -1.280580843242E-01 -4.763714422984E-01 -2.123188798842E-01
C14  1.280580843242E-01  2.362855770162E-02 -2.876811201158E-01
C15  1.280580843242E-01  4.763714422984E-01  2.123188798842E-01
C16 -1.280580843242E-01 -2.362855770162E-02  2.876811201158E-01
H17 -1.880545530681E-02 -4.150041461979E-01 -1.475392615233E-01
H18  1.880545530681E-02  8.499585380207E-02 -3.524607384767E-01
H19  1.880545530681E-02  4.150041461979E-01  1.475392615233E-01
H20 -1.880545530681E-02 -8.499585380207E-02  3.524607384767E-01
C21 -1.799523430194E-01  3.041531249909E-01 -1.742974747242E-01
C22  1.799523430194E-01 -1.958468750091E-01 -3.257025252758E-01
C23  1.799523430194E-01 -3.041531249909E-01  1.742974747242E-01
C24 -1.799523430194E-01  1.958468750091E-01  3.257025252758E-01
H25 -1.107097973501E-01  1.978811982488E-01 -7.995845600905E-02
H26  1.107097973501E-01 -3.021188017512E-01 -4.200415439910E-01
H27  1.107097973501E-01 -1.978811982488E-01  7.995845600905E-02
H28 -1.107097973501E-01  3.021188017512E-01  4.200415439910E-01
C29 -3.162473143694E-01  2.249108188278E-01 -2.566318488471E-01
C30  3.162473143694E-01 -2.750891811722E-01 -2.433681511529E-01
C31  3.162473143694E-01 -2.249108188278E-01  2.566318488471E-01
C32 -3.162473143694E-01  2.750891811722E-01  2.433681511529E-01
H33 -3.560122135564E-01  5.698088624235E-02 -2.288004852387E-01
H34  3.560122135564E-01 -4.430191137577E-01 -2.711995147613E-01
H35  3.560122135564E-01 -5.698088624235E-02  2.288004852387E-01
H36 -3.560122135564E-01  4.430191137577E-01  2.711995147613E-01
C37 -4.099471315745E-01  3.601728656229E-01 -3.796810193215E-01
C38  4.099471315745E-01 -1.398271343771E-01 -1.203189806785E-01
C39  4.099471315745E-01 -3.601728656229E-01  3.796810193215E-01
C40 -4.099471315745E-01  1.398271343771E-01  1.203189806785E-01
C41 -4.500369221759E-01 -2.816753124716E-01  4.642422322867E-01
C42  4.500369221759E-01  2.183246875284E-01  3.575776771335E-02
C43  4.500369221759E-01  2.816753124716E-01 -4.642422322867E-01
C44 -4.500369221759E-01 -2.183246875284E-01 -3.575776771335E-02
H45 -4.109009339518E-01 -1.133839367419E-01  4.349472508393E-01
H46  4.109009339518E-01  3.866160632581E-01  6.505274916074E-02
H47  4.109009339518E-01  1.133839367419E-01 -4.349472508393E-01
H48 -4.109009339518E-01 -3.866160632581E-01 -6.505274916074E-02


#===END

data_OPT_STEP_35

_symmetry_space_group_name_H-M 'P 1'
_cell_length_a      8.94123553
_cell_length_b      5.86232807
_cell_length_c      7.99353186
_cell_angle_alpha   90.000000
_cell_angle_beta  100.013894
_cell_angle_gamma   90.000000

loop_
_atom_site_label
_atom_site_fract_x
_atom_site_fract_y
_atom_site_fract_z
C1 -3.585811566687E-01 -4.168028200910E-01 -4.162348292109E-01
C2  3.585811566687E-01  8.319717990901E-02 -8.376517078915E-02
C3  3.585811566687E-01  4.168028200910E-01  4.162348292109E-01
C4 -3.585811566687E-01 -8.319717990901E-02  8.376517078915E-02
C5 -2.144751627895E-01 -3.416590173412E-01 -3.300915988359E-01
C6  2.144751627895E-01  1.583409826588E-01 -1.699084011641E-01
C7  2.144751627895E-01  3.416590173412E-01  3.300915988359E-01
C8 -2.144751627895E-01 -1.583409826588E-01  1.699084011641E-01
H9 -1.758053122679E-01 -1.733454948822E-01 -3.591512350298E-01
H10  1.758053122679E-01  3.266545051178E-01 -1.408487649702E-01
H11  1.758053122679E-01  1.733454948822E-01  3.591512350298E-01
H12 -1.758053122679E-01 -3.266545051178E-01  1.408487649702E-01
C13 -1.280273595001E-01 -4.765632731898E-01 -2.123802392527E-01
C14  1.280273595001E-01  2.343672681022E-02 -2.876197607473E-01
C15  1.280273595001E-01  4.765632731898E-01  2.123802392527E-01
C16 -1.280273595001E-01 -2.343672681022E-02  2.876197607473E-01
H17 -1.874239839305E-02 -4.152513645730E-01 -1.476593902274E-01
H18  1.874239839305E-02  8.474863542701E-02 -3.523406097726E-01
H19  1.874239839305E-02  4.152513645730E-01  1.476593902274E-01
H20 -1.874239839305E-02 -8.474863542701E-02  3.523406097726E-01
C21 -1.799352039791E-01  3.039771957890E-01 -1.743739677655E-01
C22  1.799352039791E-01 -1.960228042110E-01 -3.256260322345E-01
C23  1.799352039791E-01 -3.039771957890E-01  1.743739677655E-01
C24 -1.799352039791E-01  1.960228042110E-01  3.256260322345E-01
H25 -1.106731471508E-01  1.976352760086E-01 -8.009071933968E-02
H26  1.106731471508E-01 -3.023647239914E-01 -4.199092806603E-01
H27  1.106731471508E-01 -1.976352760086E-01  8.009071933968E-02
H28 -1.106731471508E-01  3.023647239914E-01  4.199092806603E-01
C29 -3.162509372832E-01  2.248097869841E-01 -2.566846174690E-01
C30  3.162509372832E-01 -2.751902130159E-01 -2.433153825310E-01
C31  3.162509372832E-01 -2.248097869841E-01  2.566846174690E-01
C32 -3.162509372832E-01  2.751902130159E-01  2.433153825310E-01
H33 -3.560267877892E-01  5.689331014324E-02 -2.288643560355E-01
H34  3.560267877892E-01 -4.431066898568E-01 -2.711356439645E-01
H35  3.560267877892E-01 -5.689331014324E-02  2.288643560355E-01
H36 -3.560267877892E-01  4.431066898568E-01  2.711356439645E-01
C37 -4.099527936955E-01  3.601198234997E-01 -3.797058059188E-01
C38  4.099527936955E-01 -1.398801765003E-01 -1.202941940812E-01
C39  4.099527936955E-01 -3.601198234997E-01  3.797058059188E-01
C40 -4.099527936955E-01  1.398801765003E-01  1.202941940812E-01
C41 -4.500198908014E-01 -2.816901196000E-01  4.642557400508E-01
C42  4.500198908014E-01  2.183098804000E-01  3.574425994922E-02
C43  4.500198908014E-01  2.816901196000E-01 -4.642557400508E-01
C44 -4.500198908014E-01 -2.183098804000E-01 -3.574425994922E-02
H45 -4.108694171816E-01 -1.134065078793E-01  4.349825602826E-01
H46  4.108694171816E-01  3.865934921207E-01  6.501743971744E-02
H47  4.108694171816E-01  1.134065078793E-01 -4.349825602826E-01
H48 -4.108694171816E-01 -3.865934921207E-01 -6.501743971744E-02


#===END

data_OPT_STEP_36

_symmetry_space_group_name_H-M 'P 1'
_cell_length_a      8.94201794
_cell_length_b      5.86185431
_cell_length_c      7.99323687
_cell_angle_alpha   90.000000
_cell_angle_beta  100.021633
_cell_angle_gamma   90.000000

loop_
_atom_site_label
_atom_site_fract_x
_atom_site_fract_y
_atom_site_fract_z
C1 -3.585804573952E-01 -4.168127306972E-01 -4.162293650043E-01
C2  3.585804573952E-01  8.318726930280E-02 -8.377063499573E-02
C3  3.585804573952E-01  4.168127306972E-01  4.162293650043E-01
C4 -3.585804573952E-01 -8.318726930280E-02  8.377063499573E-02
C5 -2.144574438803E-01 -3.416891909418E-01 -3.301089584079E-01
C6  2.144574438803E-01  1.583108090582E-01 -1.698910415921E-01
C7  2.144574438803E-01  3.416891909418E-01  3.301089584079E-01
C8 -2.144574438803E-01 -1.583108090582E-01  1.698910415921E-01
H9 -1.758167312980E-01 -1.733714429697E-01 -3.592301054854E-01
H10  1.758167312980E-01  3.266285570303E-01 -1.407698945146E-01
H11  1.758167312980E-01  1.733714429697E-01  3.592301054854E-01
H12 -1.758167312980E-01 -3.266285570303E-01  1.407698945146E-01
C13 -1.279870025355E-01 -4.766168256287E-01 -2.124128446783E-01
C14  1.279870025355E-01  2.338317437132E-02 -2.875871553217E-01
C15  1.279870025355E-01  4.766168256287E-01  2.124128446783E-01
C16 -1.279870025355E-01 -2.338317437132E-02  2.875871553217E-01
H17 -1.866960909524E-02 -4.153367856802E-01 -1.477631856418E-01
H18  1.866960909524E-02  8.466321431982E-02 -3.522368143582E-01
H19  1.866960909524E-02  4.153367856802E-01  1.477631856418E-01
H20 -1.866960909524E-02 -8.466321431982E-02  3.522368143582E-01
C21 -1.799042750134E-01  3.039244786907E-01 -1.743864384922E-01
C22  1.799042750134E-01 -1.960755213093E-01 -3.256135615078E-01
C23  1.799042750134E-01 -3.039244786907E-01  1.743864384922E-01
C24 -1.799042750134E-01  1.960755213093E-01  3.256135615078E-01
H25 -1.106322271819E-01  1.975294055963E-01 -8.013294373782E-02
H26  1.106322271819E-01 -3.024705944037E-01 -4.198670562622E-01
H27  1.106322271819E-01 -1.975294055963E-01  8.013294373782E-02
H28 -1.106322271819E-01  3.024705944037E-01  4.198670562622E-01
C29 -3.162387033672E-01  2.247783763645E-01 -2.566731382056E-01
C30  3.162387033672E-01 -2.752216236355E-01 -2.433268617944E-01
C31  3.162387033672E-01 -2.247783763645E-01  2.566731382056E-01
C32 -3.162387033672E-01  2.752216236355E-01  2.433268617944E-01
H33 -3.560116626407E-01  5.685277339980E-02 -2.288457465853E-01
H34  3.560116626407E-01 -4.431472266002E-01 -2.711542534147E-01
H35  3.560116626407E-01 -5.685277339980E-02  2.288457465853E-01
H36 -3.560116626407E-01  4.431472266002E-01  2.711542534147E-01
C37 -4.099544835645E-01  3.601037964465E-01 -3.796925900427E-01
C38  4.099544835645E-01 -1.398962035535E-01 -1.203074099573E-01
C39  4.099544835645E-01 -3.601037964465E-01  3.796925900427E-01
C40 -4.099544835645E-01  1.398962035535E-01  1.203074099573E-01
C41 -4.500137736989E-01 -2.816827032002E-01  4.642462118705E-01
C42  4.500137736989E-01  2.183172967998E-01  3.575378812949E-02
C43  4.500137736989E-01  2.816827032002E-01 -4.642462118705E-01
C44 -4.500137736989E-01 -2.183172967998E-01 -3.575378812949E-02
H45 -4.108550842263E-01 -1.133948019980E-01  4.349682870338E-01
H46  4.108550842263E-01  3.866051980020E-01  6.503171296617E-02
H47  4.108550842263E-01  1.133948019980E-01 -4.349682870338E-01
H48 -4.108550842263E-01 -3.866051980020E-01 -6.503171296617E-02


#===END

data_OPT_STEP_37

_symmetry_space_group_name_H-M 'P 1'
_cell_length_a      8.94323130
_cell_length_b      5.86173822
_cell_length_c      7.99225295
_cell_angle_alpha   90.000000
_cell_angle_beta  100.033383
_cell_angle_gamma   90.000000

loop_
_atom_site_label
_atom_site_fract_x
_atom_site_fract_y
_atom_site_fract_z
C1 -3.585889619147E-01 -4.168053382723E-01 -4.162109006539E-01
C2  3.585889619147E-01  8.319466172769E-02 -8.378909934610E-02
C3  3.585889619147E-01  4.168053382723E-01  4.162109006539E-01
C4 -3.585889619147E-01 -8.319466172769E-02  8.378909934610E-02
C5 -2.144554352839E-01 -3.416940750780E-01 -3.301079657542E-01
C6  2.144554352839E-01  1.583059249220E-01 -1.698920342458E-01
C7  2.144554352839E-01  3.416940750780E-01  3.301079657542E-01
C8 -2.144554352839E-01 -1.583059249220E-01  1.698920342458E-01
H9 -1.758477949253E-01 -1.733693374384E-01 -3.592658751971E-01
H10  1.758477949253E-01  3.266306625616E-01 -1.407341248029E-01
H11  1.758477949253E-01  1.733693374384E-01  3.592658751971E-01
H12 -1.758477949253E-01 -3.266306625616E-01  1.407341248029E-01
C13 -1.279566142277E-01 -4.766338308534E-01 -2.124163969574E-01
C14  1.279566142277E-01  2.336616914662E-02 -2.875836030426E-01
C15  1.279566142277E-01  4.766338308534E-01  2.124163969574E-01
C16 -1.279566142277E-01 -2.336616914662E-02  2.875836030426E-01
H17 -1.862545222119E-02 -4.153801129369E-01 -1.477947963217E-01
H18  1.862545222119E-02  8.461988706312E-02 -3.522052036783E-01
H19  1.862545222119E-02  4.153801129369E-01  1.477947963217E-01
H20 -1.862545222119E-02 -8.461988706312E-02  3.522052036783E-01
C21 -1.798637512011E-01  3.039089651098E-01 -1.743722770038E-01
C22  1.798637512011E-01 -1.960910348902E-01 -3.256277229962E-01
C23  1.798637512011E-01 -3.039089651098E-01  1.743722770038E-01
C24 -1.798637512011E-01  1.960910348902E-01  3.256277229962E-01
H25 -1.105815598265E-01  1.974911425945E-01 -8.012213881615E-02
H26  1.105815598265E-01 -3.025088574055E-01 -4.198778611839E-01
H27  1.105815598265E-01 -1.974911425945E-01  8.012213881615E-02
H28 -1.105815598265E-01  3.025088574055E-01  4.198778611839E-01
C29 -3.162043140485E-01  2.247654359177E-01 -2.566514568353E-01
C30  3.162043140485E-01 -2.752345640823E-01 -2.433485431647E-01
C31  3.162043140485E-01 -2.247654359177E-01  2.566514568353E-01
C32 -3.162043140485E-01  2.752345640823E-01  2.433485431647E-01
H33 -3.559609548278E-01  5.683361452133E-02 -2.288143857630E-01
H34  3.559609548278E-01 -4.431663854787E-01 -2.711856142370E-01
H35  3.559609548278E-01 -5.683361452133E-02  2.288143857630E-01
H36 -3.559609548278E-01  4.431663854787E-01  2.711856142370E-01
C37 -4.099439768322E-01  3.600994257248E-01 -3.796752362945E-01
C38  4.099439768322E-01 -1.399005742752E-01 -1.203247637055E-01
C39  4.099439768322E-01 -3.600994257248E-01  3.796752362945E-01
C40 -4.099439768322E-01  1.399005742752E-01  1.203247637055E-01
C41 -4.500279664454E-01 -2.816744968134E-01  4.642406739868E-01
C42  4.500279664454E-01  2.183255031866E-01  3.575932601315E-02
C43  4.500279664454E-01  2.816744968134E-01 -4.642406739868E-01
C44 -4.500279664454E-01 -2.183255031866E-01 -3.575932601315E-02
H45 -4.108780812925E-01 -1.133852239333E-01  4.349546545570E-01
H46  4.108780812925E-01  3.866147760667E-01  6.504534544301E-02
H47  4.108780812925E-01  1.133852239333E-01 -4.349546545570E-01
H48 -4.108780812925E-01 -3.866147760667E-01 -6.504534544301E-02


#===END

data_OPT_STEP_38

_symmetry_space_group_name_H-M 'P 1'
_cell_length_a      8.94388964
_cell_length_b      5.86152414
_cell_length_c      7.99174509
_cell_angle_alpha   90.000000
_cell_angle_beta  100.040598
_cell_angle_gamma   90.000000

loop_
_atom_site_label
_atom_site_fract_x
_atom_site_fract_y
_atom_site_fract_z
C1 -3.585937531778E-01 -4.167926667964E-01 -4.161968140947E-01
C2  3.585937531778E-01  8.320733320357E-02 -8.380318590532E-02
C3  3.585937531778E-01  4.167926667964E-01  4.161968140947E-01
C4 -3.585937531778E-01 -8.320733320357E-02  8.380318590532E-02
C5 -2.144565648424E-01 -3.416801767755E-01 -3.300986644847E-01
C6  2.144565648424E-01  1.583198232245E-01 -1.699013355153E-01
C7  2.144565648424E-01  3.416801767755E-01  3.300986644847E-01
C8 -2.144565648424E-01 -1.583198232245E-01  1.699013355153E-01
H9 -1.758597719951E-01 -1.733499141494E-01 -3.592705585036E-01
H10  1.758597719951E-01  3.266500858506E-01 -1.407294414964E-01
H11  1.758597719951E-01  1.733499141494E-01  3.592705585036E-01
H12 -1.758597719951E-01 -3.266500858506E-01  1.407294414964E-01
C13 -1.279444370194E-01 -4.766260184785E-01 -2.124038165265E-01
C14  1.279444370194E-01  2.337398152155E-02 -2.875961834735E-01
C15  1.279444370194E-01  4.766260184785E-01  2.124038165265E-01
C16 -1.279444370194E-01 -2.337398152154E-02  2.875961834735E-01
H17 -1.860759070529E-02 -4.153918075471E-01 -1.477842536284E-01
H18  1.860759070529E-02  8.460819245292E-02 -3.522157463716E-01
H19  1.860759070529E-02  4.153918075471E-01  1.477842536284E-01
H20 -1.860759070529E-02 -8.460819245292E-02  3.522157463716E-01
C21 -1.798449940544E-01  3.039127546915E-01 -1.743475132064E-01
C22  1.798449940544E-01 -1.960872453085E-01 -3.256524867936E-01
C23  1.798449940544E-01 -3.039127546915E-01  1.743475132064E-01
C24 -1.798449940544E-01  1.960872453085E-01  3.256524867936E-01
H25 -1.105592849828E-01  1.974953377521E-01 -8.008486523635E-02
H26  1.105592849828E-01 -3.025046622479E-01 -4.199151347636E-01
H27  1.105592849828E-01 -1.974953377521E-01  8.008486523635E-02
H28 -1.105592849828E-01  3.025046622479E-01  4.199151347636E-01
C29 -3.161876093526E-01  2.247640233168E-01 -2.566258866931E-01
C30  3.161876093526E-01 -2.752359766832E-01 -2.433741133069E-01
C31  3.161876093526E-01 -2.247640233168E-01  2.566258866931E-01
C32 -3.161876093526E-01  2.752359766832E-01  2.433741133069E-01
H33 -3.559353705208E-01  5.682568182459E-02 -2.287822319839E-01
H34  3.559353705208E-01 -4.431743181754E-01 -2.712177680161E-01
H35  3.559353705208E-01 -5.682568182459E-02  2.287822319839E-01
H36 -3.559353705208E-01  4.431743181754E-01  2.712177680161E-01
C37 -4.099378661485E-01  3.601009206739E-01 -3.796593303199E-01
C38  4.099378661485E-01 -1.398990793261E-01 -1.203406696801E-01
C39  4.099378661485E-01 -3.601009206739E-01  3.796593303199E-01
C40 -4.099378661485E-01  1.398990793261E-01  1.203406696801E-01
C41 -4.500374636565E-01 -2.816652508662E-01  4.642360100551E-01
C42  4.500374636565E-01  2.183347491338E-01  3.576398994494E-02
C43  4.500374636565E-01  2.816652508662E-01 -4.642360100551E-01
C44 -4.500374636565E-01 -2.183347491338E-01 -3.576398994494E-02
H45 -4.108935385146E-01 -1.133741617716E-01  4.349392795530E-01
H46  4.108935385146E-01  3.866258382284E-01  6.506072044697E-02
H47  4.108935385146E-01  1.133741617716E-01 -4.349392795530E-01
H48 -4.108935385146E-01 -3.866258382284E-01 -6.506072044697E-02


#===END

data_OPT_STEP_39

_symmetry_space_group_name_H-M 'P 1'
_cell_length_a      8.94410101
_cell_length_b      5.86144813
_cell_length_c      7.99170555
_cell_angle_alpha   90.000000
_cell_angle_beta  100.042653
_cell_angle_gamma   90.000000

loop_
_atom_site_label
_atom_site_fract_x
_atom_site_fract_y
_atom_site_fract_z
C1 -3.585947508169E-01 -4.167901027771E-01 -4.161956315689E-01
C2  3.585947508169E-01  8.320989722287E-02 -8.380436843113E-02
C3  3.585947508169E-01  4.167901027771E-01  4.161956315689E-01
C4 -3.585947508169E-01 -8.320989722287E-02  8.380436843113E-02
C5 -2.144576665357E-01 -3.416762125346E-01 -3.300983048054E-01
C6  2.144576665357E-01  1.583237874654E-01 -1.699016951946E-01
C7  2.144576665357E-01  3.416762125346E-01  3.300983048054E-01
C8 -2.144576665357E-01 -1.583237874654E-01  1.699016951946E-01
H9 -1.758625965443E-01 -1.733443203315E-01 -3.592716839672E-01
H10  1.758625965443E-01  3.266556796685E-01 -1.407283160328E-01
H11  1.758625965443E-01  1.733443203315E-01  3.592716839672E-01
H12 -1.758625965443E-01 -3.266556796685E-01  1.407283160328E-01
C13 -1.279436695950E-01 -4.766232077971E-01 -2.124020413560E-01
C14  1.279436695950E-01  2.337679220286E-02 -2.875979586440E-01
C15  1.279436695950E-01  4.766232077971E-01  2.124020413560E-01
C16 -1.279436695950E-01 -2.337679220286E-02  2.875979586440E-01
H17 -1.860604839915E-02 -4.153926428493E-01 -1.477822367419E-01
H18  1.860604839915E-02  8.460735715068E-02 -3.522177632581E-01
H19  1.860604839915E-02  4.153926428493E-01  1.477822367419E-01
H20 -1.860604839915E-02 -8.460735715068E-02  3.522177632581E-01
C21 -1.798422339613E-01  3.039137355579E-01 -1.743430145791E-01
C22  1.798422339613E-01 -1.960862644421E-01 -3.256569854209E-01
C23  1.798422339613E-01 -3.039137355579E-01  1.743430145791E-01
C24 -1.798422339613E-01  1.960862644421E-01  3.256569854209E-01
H25 -1.105544178598E-01  1.974969789097E-01 -8.007832418634E-02
H26  1.105544178598E-01 -3.025030210903E-01 -4.199216758137E-01
H27  1.105544178598E-01 -1.974969789097E-01  8.007832418634E-02
H28 -1.105544178598E-01  3.025030210903E-01  4.199216758137E-01
C29 -3.161846685356E-01  2.247634801361E-01 -2.566206818533E-01
C30  3.161846685356E-01 -2.752365198639E-01 -2.433793181467E-01
C31  3.161846685356E-01 -2.247634801361E-01  2.566206818533E-01
C32 -3.161846685356E-01  2.752365198639E-01  2.433793181467E-01
H33 -3.559308462574E-01  5.682383433417E-02 -2.287751228497E-01
H34  3.559308462574E-01 -4.431761656658E-01 -2.712248771503E-01
H35  3.559308462574E-01 -5.682383433417E-02  2.287751228497E-01
H36 -3.559308462574E-01  4.431761656658E-01  2.712248771503E-01
C37 -4.099364968042E-01  3.601010600107E-01 -3.796563714984E-01
C38  4.099364968042E-01 -1.398989399893E-01 -1.203436285016E-01
C39  4.099364968042E-01 -3.601010600107E-01  3.796563714984E-01
C40 -4.099364968042E-01  1.398989399893E-01  1.203436285016E-01
C41 -4.500398252491E-01 -2.816631025013E-01  4.642341034179E-01
C42  4.500398252491E-01  2.183368974987E-01  3.576589658206E-02
C43  4.500398252491E-01  2.816631025013E-01 -4.642341034179E-01
C44 -4.500398252491E-01 -2.183368974987E-01 -3.576589658206E-02
H45 -4.108977871054E-01 -1.133707223456E-01  4.349352032021E-01
H46  4.108977871054E-01  3.866292776544E-01  6.506479679790E-02
H47  4.108977871054E-01  1.133707223456E-01 -4.349352032021E-01
H48 -4.108977871054E-01 -3.866292776544E-01 -6.506479679790E-02


#===END

data_OPT_STEP_40

_symmetry_space_group_name_H-M 'P 1'
_cell_length_a      8.94410101
_cell_length_b      5.86144813
_cell_length_c      7.99170555
_cell_angle_alpha   90.000000
_cell_angle_beta  100.042653
_cell_angle_gamma   90.000000

loop_
_atom_site_label
_atom_site_fract_x
_atom_site_fract_y
_atom_site_fract_z
C1 -3.585947508169E-01 -4.167901027771E-01 -4.161956315689E-01
C2  3.585947508169E-01  8.320989722287E-02 -8.380436843113E-02
C3  3.585947508169E-01  4.167901027771E-01  4.161956315689E-01
C4 -3.585947508169E-01 -8.320989722287E-02  8.380436843113E-02
C5 -2.144576665357E-01 -3.416762125346E-01 -3.300983048054E-01
C6  2.144576665357E-01  1.583237874654E-01 -1.699016951946E-01
C7  2.144576665357E-01  3.416762125346E-01  3.300983048054E-01
C8 -2.144576665357E-01 -1.583237874654E-01  1.699016951946E-01
H9 -1.758625965443E-01 -1.733443203315E-01 -3.592716839672E-01
H10  1.758625965443E-01  3.266556796685E-01 -1.407283160328E-01
H11  1.758625965443E-01  1.733443203315E-01  3.592716839672E-01
H12 -1.758625965443E-01 -3.266556796685E-01  1.407283160328E-01
C13 -1.279436695950E-01 -4.766232077971E-01 -2.124020413560E-01
C14  1.279436695950E-01  2.337679220286E-02 -2.875979586440E-01
C15  1.279436695950E-01  4.766232077971E-01  2.124020413560E-01
C16 -1.279436695950E-01 -2.337679220286E-02  2.875979586440E-01
H17 -1.860604839915E-02 -4.153926428493E-01 -1.477822367419E-01
H18  1.860604839915E-02  8.460735715068E-02 -3.522177632581E-01
H19  1.860604839915E-02  4.153926428493E-01  1.477822367419E-01
H20 -1.860604839915E-02 -8.460735715068E-02  3.522177632581E-01
C21 -1.798422339613E-01  3.039137355579E-01 -1.743430145791E-01
C22  1.798422339613E-01 -1.960862644421E-01 -3.256569854209E-01
C23  1.798422339613E-01 -3.039137355579E-01  1.743430145791E-01
C24 -1.798422339613E-01  1.960862644421E-01  3.256569854209E-01
H25 -1.105544178598E-01  1.974969789097E-01 -8.007832418634E-02
H26  1.105544178598E-01 -3.025030210903E-01 -4.199216758137E-01
H27  1.105544178598E-01 -1.974969789097E-01  8.007832418634E-02
H28 -1.105544178598E-01  3.025030210903E-01  4.199216758137E-01
C29 -3.161846685356E-01  2.247634801361E-01 -2.566206818533E-01
C30  3.161846685356E-01 -2.752365198639E-01 -2.433793181467E-01
C31  3.161846685356E-01 -2.247634801361E-01  2.566206818533E-01
C32 -3.161846685356E-01  2.752365198639E-01  2.433793181467E-01
H33 -3.559308462574E-01  5.682383433417E-02 -2.287751228497E-01
H34  3.559308462574E-01 -4.431761656658E-01 -2.712248771503E-01
H35  3.559308462574E-01 -5.682383433417E-02  2.287751228497E-01
H36 -3.559308462574E-01  4.431761656658E-01  2.712248771503E-01
C37 -4.099364968042E-01  3.601010600107E-01 -3.796563714984E-01
C38  4.099364968042E-01 -1.398989399893E-01 -1.203436285016E-01
C39  4.099364968042E-01 -3.601010600107E-01  3.796563714984E-01
C40 -4.099364968042E-01  1.398989399893E-01  1.203436285016E-01
C41 -4.500398252491E-01 -2.816631025013E-01  4.642341034179E-01
C42  4.500398252491E-01  2.183368974987E-01  3.576589658206E-02
C43  4.500398252491E-01  2.816631025013E-01 -4.642341034179E-01
C44 -4.500398252491E-01 -2.183368974987E-01 -3.576589658206E-02
H45 -4.108977871054E-01 -1.133707223456E-01  4.349352032021E-01
H46  4.108977871054E-01  3.866292776544E-01  6.506479679790E-02
H47  4.108977871054E-01  1.133707223456E-01 -4.349352032021E-01
H48 -4.108977871054E-01 -3.866292776544E-01 -6.506479679790E-02


#===END
