###############################################################################
#
#                    CRYSTAL17 CIF FILE
#
###############################################################################

data_OPT_STEP_1

_symmetry_space_group_name_H-M 'P 1'
_cell_length_a     17.97300000
_cell_length_b      7.35200000
_cell_length_c      6.24500000
_cell_angle_alpha   90.000000
_cell_angle_beta   90.646004
_cell_angle_gamma   90.000000

loop_
_atom_site_label
_atom_site_fract_x
_atom_site_fract_y
_atom_site_fract_z
C1  1.583400000000E-01 -3.951000000000E-01  4.904000000000E-01
C2 -1.583400000000E-01  1.049000000000E-01  9.600000000000E-03
C3 -1.583400000000E-01  3.951000000000E-01 -4.904000000000E-01
C4  1.583400000000E-01 -1.049000000000E-01 -9.600000000000E-03
H5  1.707000000000E-01 -3.203000000000E-01 -3.904000000000E-01
H6 -1.707000000000E-01  1.797000000000E-01 -1.096000000000E-01
H7 -1.707000000000E-01  3.203000000000E-01  3.904000000000E-01
H8  1.707000000000E-01 -1.797000000000E-01  1.096000000000E-01
C9  8.549000000000E-02 -3.979000000000E-01  4.133000000000E-01
C10 -8.549000000000E-02  1.021000000000E-01  8.670000000000E-02
C11 -8.549000000000E-02  3.979000000000E-01 -4.133000000000E-01
C12  8.549000000000E-02 -1.021000000000E-01 -8.670000000000E-02
H13  4.860000000000E-02 -3.260000000000E-01  4.807000000000E-01
H14 -4.860000000000E-02  1.740000000000E-01  1.930000000000E-02
H15 -4.860000000000E-02  3.260000000000E-01 -4.807000000000E-01
H16  4.860000000000E-02 -1.740000000000E-01 -1.930000000000E-02
C17  6.641000000000E-02  4.950000000000E-01  2.390000000000E-01
C18 -6.641000000000E-02 -5.000000000000E-03  2.610000000000E-01
C19 -6.641000000000E-02 -4.950000000000E-01 -2.390000000000E-01
C20  6.641000000000E-02  5.000000000000E-03 -2.610000000000E-01
H21  1.650000000000E-02  4.923000000000E-01  1.874000000000E-01
H22 -1.650000000000E-02 -7.700000000000E-03  3.126000000000E-01
H23 -1.650000000000E-02 -4.923000000000E-01 -1.874000000000E-01
H24  1.650000000000E-02  7.700000000000E-03 -3.126000000000E-01
C25  1.206900000000E-01  3.916000000000E-01  1.403000000000E-01
C26 -1.206900000000E-01 -1.084000000000E-01  3.597000000000E-01
C27 -1.206900000000E-01 -3.916000000000E-01 -1.403000000000E-01
C28  1.206900000000E-01  1.084000000000E-01 -3.597000000000E-01
H29  1.081000000000E-01  3.191000000000E-01  1.930000000000E-02
H30 -1.081000000000E-01 -1.809000000000E-01  4.807000000000E-01
H31 -1.081000000000E-01 -3.191000000000E-01 -1.930000000000E-02
H32  1.081000000000E-01  1.809000000000E-01 -4.807000000000E-01
C33  1.934800000000E-01  3.936000000000E-01  2.176000000000E-01
C34 -1.934800000000E-01 -1.064000000000E-01  2.824000000000E-01
C35 -1.934800000000E-01 -3.936000000000E-01 -2.176000000000E-01
C36  1.934800000000E-01  1.064000000000E-01 -2.824000000000E-01
H37  2.301000000000E-01  3.219000000000E-01  1.488000000000E-01
H38 -2.301000000000E-01 -1.781000000000E-01  3.512000000000E-01
H39 -2.301000000000E-01 -3.219000000000E-01 -1.488000000000E-01
H40  2.301000000000E-01  1.781000000000E-01 -3.512000000000E-01
C41  2.138000000000E-01  4.993000000000E-01  3.951000000000E-01
C42 -2.138000000000E-01 -7.000000000003E-04  1.049000000000E-01
C43 -2.138000000000E-01 -4.993000000000E-01 -3.951000000000E-01
C44  2.138000000000E-01  7.000000000001E-04 -1.049000000000E-01
C45  2.916900000000E-01 -4.970000000000E-01  4.786000000000E-01
C46 -2.916900000000E-01  3.000000000000E-03  2.140000000000E-02
C47 -2.916900000000E-01  4.970000000000E-01 -4.786000000000E-01
C48  2.916900000000E-01 -3.000000000000E-03 -2.140000000000E-02
C49  3.071800000000E-01 -4.350000000000E-01 -3.077000000000E-01
C50 -3.071800000000E-01  6.500000000000E-02 -1.923000000000E-01
C51 -3.071800000000E-01  4.350000000000E-01  3.077000000000E-01
C52  3.071800000000E-01 -6.500000000000E-02  1.923000000000E-01
H53  2.669000000000E-01 -4.069000000000E-01 -2.164000000000E-01
H54 -2.669000000000E-01  9.310000000000E-02 -2.836000000000E-01
H55 -2.669000000000E-01  4.069000000000E-01  2.164000000000E-01
H56  2.669000000000E-01 -9.310000000000E-02  2.836000000000E-01
C57  3.779800000000E-01 -4.155000000000E-01 -2.323000000000E-01
C58 -3.779800000000E-01  8.450000000000E-02 -2.677000000000E-01
C59 -3.779800000000E-01  4.155000000000E-01  2.323000000000E-01
C60  3.779800000000E-01 -8.450000000000E-02  2.677000000000E-01
H61  3.861000000000E-01 -3.738000000000E-01 -9.000000000000E-02
H62 -3.861000000000E-01  1.262000000000E-01 -4.100000000000E-01
H63 -3.861000000000E-01  3.738000000000E-01  9.000000000000E-02
H64  3.861000000000E-01 -1.262000000000E-01  4.100000000000E-01
C65  4.403600000000E-01 -4.567000000000E-01 -3.638000000000E-01
C66 -4.403600000000E-01  4.330000000000E-02 -1.362000000000E-01
C67 -4.403600000000E-01  4.567000000000E-01  3.638000000000E-01
C68  4.403600000000E-01 -4.330000000000E-02  1.362000000000E-01
C69  4.260400000000E-01  4.721800000000E-01  4.253000000000E-01
C70 -4.260400000000E-01 -2.782000000000E-02  7.470000000000E-02
C71 -4.260400000000E-01 -4.721800000000E-01 -4.253000000000E-01
C72  4.260400000000E-01  2.782000000000E-02 -7.470000000000E-02
C73  3.508200000000E-01  4.538000000000E-01  3.531000000000E-01
C74 -3.508200000000E-01 -4.620000000000E-02  1.469000000000E-01
C75 -3.508200000000E-01 -4.538000000000E-01 -3.531000000000E-01
C76  3.508200000000E-01  4.620000000000E-02 -1.469000000000E-01
H77  3.413000000000E-01  4.061000000000E-01  2.141000000000E-01
H78 -3.413000000000E-01 -9.390000000000E-02  2.859000000000E-01
H79 -3.413000000000E-01 -4.061000000000E-01 -2.141000000000E-01
H80  3.413000000000E-01  9.390000000000E-02 -2.859000000000E-01
C81 -4.864000000000E-01 -4.304000000000E-01 -2.944000000000E-01
C82  4.864000000000E-01  6.960000000000E-02 -2.056000000000E-01
C83  4.864000000000E-01  4.304000000000E-01  2.944000000000E-01
C84 -4.864000000000E-01 -6.960000000000E-02  2.056000000000E-01
H85 -4.773000000000E-01 -3.830000000000E-01 -1.550000000000E-01
H86  4.773000000000E-01  1.170000000000E-01 -3.450000000000E-01
H87  4.773000000000E-01  3.830000000000E-01  1.550000000000E-01
H88 -4.773000000000E-01 -1.170000000000E-01  3.450000000000E-01


#===END

data_OPT_STEP_2

_symmetry_space_group_name_H-M 'P 1'
_cell_length_a     17.97300000
_cell_length_b      7.35200000
_cell_length_c      6.24500000
_cell_angle_alpha   90.000000
_cell_angle_beta   90.646004
_cell_angle_gamma   90.000000

loop_
_atom_site_label
_atom_site_fract_x
_atom_site_fract_y
_atom_site_fract_z
C1  1.583400000000E-01 -3.951000000000E-01  4.904000000000E-01
C2 -1.583400000000E-01  1.049000000000E-01  9.600000000000E-03
C3 -1.583400000000E-01  3.951000000000E-01 -4.904000000000E-01
C4  1.583400000000E-01 -1.049000000000E-01 -9.600000000000E-03
H5  1.707000000000E-01 -3.203000000000E-01 -3.904000000000E-01
H6 -1.707000000000E-01  1.797000000000E-01 -1.096000000000E-01
H7 -1.707000000000E-01  3.203000000000E-01  3.904000000000E-01
H8  1.707000000000E-01 -1.797000000000E-01  1.096000000000E-01
C9  8.549000000000E-02 -3.979000000000E-01  4.133000000000E-01
C10 -8.549000000000E-02  1.021000000000E-01  8.670000000000E-02
C11 -8.549000000000E-02  3.979000000000E-01 -4.133000000000E-01
C12  8.549000000000E-02 -1.021000000000E-01 -8.670000000000E-02
H13  4.860000000000E-02 -3.260000000000E-01  4.807000000000E-01
H14 -4.860000000000E-02  1.740000000000E-01  1.930000000000E-02
H15 -4.860000000000E-02  3.260000000000E-01 -4.807000000000E-01
H16  4.860000000000E-02 -1.740000000000E-01 -1.930000000000E-02
C17  6.641000000000E-02  4.950000000000E-01  2.390000000000E-01
C18 -6.641000000000E-02 -5.000000000000E-03  2.610000000000E-01
C19 -6.641000000000E-02 -4.950000000000E-01 -2.390000000000E-01
C20  6.641000000000E-02  5.000000000000E-03 -2.610000000000E-01
H21  1.650000000000E-02  4.923000000000E-01  1.874000000000E-01
H22 -1.650000000000E-02 -7.700000000000E-03  3.126000000000E-01
H23 -1.650000000000E-02 -4.923000000000E-01 -1.874000000000E-01
H24  1.650000000000E-02  7.700000000000E-03 -3.126000000000E-01
C25  1.206900000000E-01  3.916000000000E-01  1.403000000000E-01
C26 -1.206900000000E-01 -1.084000000000E-01  3.597000000000E-01
C27 -1.206900000000E-01 -3.916000000000E-01 -1.403000000000E-01
C28  1.206900000000E-01  1.084000000000E-01 -3.597000000000E-01
H29  1.081000000000E-01  3.191000000000E-01  1.930000000000E-02
H30 -1.081000000000E-01 -1.809000000000E-01  4.807000000000E-01
H31 -1.081000000000E-01 -3.191000000000E-01 -1.930000000000E-02
H32  1.081000000000E-01  1.809000000000E-01 -4.807000000000E-01
C33  1.934800000000E-01  3.936000000000E-01  2.176000000000E-01
C34 -1.934800000000E-01 -1.064000000000E-01  2.824000000000E-01
C35 -1.934800000000E-01 -3.936000000000E-01 -2.176000000000E-01
C36  1.934800000000E-01  1.064000000000E-01 -2.824000000000E-01
H37  2.301000000000E-01  3.219000000000E-01  1.488000000000E-01
H38 -2.301000000000E-01 -1.781000000000E-01  3.512000000000E-01
H39 -2.301000000000E-01 -3.219000000000E-01 -1.488000000000E-01
H40  2.301000000000E-01  1.781000000000E-01 -3.512000000000E-01
C41  2.138000000000E-01  4.993000000000E-01  3.951000000000E-01
C42 -2.138000000000E-01 -7.000000000003E-04  1.049000000000E-01
C43 -2.138000000000E-01 -4.993000000000E-01 -3.951000000000E-01
C44  2.138000000000E-01  7.000000000001E-04 -1.049000000000E-01
C45  2.916900000000E-01 -4.970000000000E-01  4.786000000000E-01
C46 -2.916900000000E-01  3.000000000000E-03  2.140000000000E-02
C47 -2.916900000000E-01  4.970000000000E-01 -4.786000000000E-01
C48  2.916900000000E-01 -3.000000000000E-03 -2.140000000000E-02
C49  3.071800000000E-01 -4.350000000000E-01 -3.077000000000E-01
C50 -3.071800000000E-01  6.500000000000E-02 -1.923000000000E-01
C51 -3.071800000000E-01  4.350000000000E-01  3.077000000000E-01
C52  3.071800000000E-01 -6.500000000000E-02  1.923000000000E-01
H53  2.669000000000E-01 -4.069000000000E-01 -2.164000000000E-01
H54 -2.669000000000E-01  9.310000000000E-02 -2.836000000000E-01
H55 -2.669000000000E-01  4.069000000000E-01  2.164000000000E-01
H56  2.669000000000E-01 -9.310000000000E-02  2.836000000000E-01
C57  3.779800000000E-01 -4.155000000000E-01 -2.323000000000E-01
C58 -3.779800000000E-01  8.450000000000E-02 -2.677000000000E-01
C59 -3.779800000000E-01  4.155000000000E-01  2.323000000000E-01
C60  3.779800000000E-01 -8.450000000000E-02  2.677000000000E-01
H61  3.861000000000E-01 -3.738000000000E-01 -9.000000000000E-02
H62 -3.861000000000E-01  1.262000000000E-01 -4.100000000000E-01
H63 -3.861000000000E-01  3.738000000000E-01  9.000000000000E-02
H64  3.861000000000E-01 -1.262000000000E-01  4.100000000000E-01
C65  4.403600000000E-01 -4.567000000000E-01 -3.638000000000E-01
C66 -4.403600000000E-01  4.330000000000E-02 -1.362000000000E-01
C67 -4.403600000000E-01  4.567000000000E-01  3.638000000000E-01
C68  4.403600000000E-01 -4.330000000000E-02  1.362000000000E-01
C69  4.260400000000E-01  4.721800000000E-01  4.253000000000E-01
C70 -4.260400000000E-01 -2.782000000000E-02  7.470000000000E-02
C71 -4.260400000000E-01 -4.721800000000E-01 -4.253000000000E-01
C72  4.260400000000E-01  2.782000000000E-02 -7.470000000000E-02
C73  3.508200000000E-01  4.538000000000E-01  3.531000000000E-01
C74 -3.508200000000E-01 -4.620000000000E-02  1.469000000000E-01
C75 -3.508200000000E-01 -4.538000000000E-01 -3.531000000000E-01
C76  3.508200000000E-01  4.620000000000E-02 -1.469000000000E-01
H77  3.413000000000E-01  4.061000000000E-01  2.141000000000E-01
H78 -3.413000000000E-01 -9.390000000000E-02  2.859000000000E-01
H79 -3.413000000000E-01 -4.061000000000E-01 -2.141000000000E-01
H80  3.413000000000E-01  9.390000000000E-02 -2.859000000000E-01
C81 -4.864000000000E-01 -4.304000000000E-01 -2.944000000000E-01
C82  4.864000000000E-01  6.960000000000E-02 -2.056000000000E-01
C83  4.864000000000E-01  4.304000000000E-01  2.944000000000E-01
C84 -4.864000000000E-01 -6.960000000000E-02  2.056000000000E-01
H85 -4.773000000000E-01 -3.830000000000E-01 -1.550000000000E-01
H86  4.773000000000E-01  1.170000000000E-01 -3.450000000000E-01
H87  4.773000000000E-01  3.830000000000E-01  1.550000000000E-01
H88 -4.773000000000E-01 -1.170000000000E-01  3.450000000000E-01


#===END

data_OPT_STEP_3

_symmetry_space_group_name_H-M 'P 1'
_cell_length_a     17.95588244
_cell_length_b      7.31927494
_cell_length_c      6.25552390
_cell_angle_alpha   90.000000
_cell_angle_beta   90.611798
_cell_angle_gamma   90.000000

loop_
_atom_site_label
_atom_site_fract_x
_atom_site_fract_y
_atom_site_fract_z
C1  1.588322639329E-01 -3.966660604563E-01  4.928437100064E-01
C2 -1.588322639329E-01  1.033339395437E-01  7.156289993573E-03
C3 -1.588322639329E-01  3.966660604563E-01 -4.928437100064E-01
C4  1.588322639329E-01 -1.033339395437E-01 -7.156289993573E-03
H5  1.716627834291E-01 -3.174321706732E-01 -3.849248026617E-01
H6 -1.716627834291E-01  1.825678293268E-01 -1.150751973383E-01
H7 -1.716627834291E-01  3.174321706732E-01  3.849248026617E-01
H8  1.716627834291E-01 -1.825678293268E-01  1.150751973383E-01
C9  8.607757186310E-02 -3.993437695984E-01  4.156348821659E-01
C10 -8.607757186310E-02  1.006562304016E-01  8.436511783408E-02
C11 -8.607757186310E-02  3.993437695984E-01 -4.156348821659E-01
C12  8.607757186310E-02 -1.006562304016E-01 -8.436511783408E-02
H13  4.789952564711E-02 -3.237145742733E-01  4.847095126012E-01
H14 -4.789952564711E-02  1.762854257267E-01  1.529048739876E-02
H15 -4.789952564711E-02  3.237145742733E-01 -4.847095126012E-01
H16  4.789952564711E-02 -1.762854257267E-01 -1.529048739876E-02
C17  6.721579077841E-02  4.943500335686E-01  2.401210091954E-01
C18 -6.721579077841E-02 -5.649966431402E-03  2.598789908046E-01
C19 -6.721579077841E-02 -4.943500335686E-01 -2.401210091954E-01
C20  6.721579077841E-02  5.649966431402E-03 -2.598789908046E-01
H21  1.555232948988E-02  4.919870332953E-01  1.859395806338E-01
H22 -1.555232948988E-02 -8.012966704686E-03  3.140604193662E-01
H23 -1.555232948988E-02 -4.919870332953E-01 -1.859395806338E-01
H24  1.555232948988E-02  8.012966704686E-03 -3.140604193662E-01
C25  1.216731790704E-01  3.914903328956E-01  1.403654483276E-01
C26 -1.216731790704E-01 -1.085096671044E-01  3.596345516724E-01
C27 -1.216731790704E-01 -3.914903328956E-01 -1.403654483276E-01
C28  1.216731790704E-01  1.085096671044E-01 -3.596345516724E-01
H29  1.086735589099E-01  3.154286745329E-01  1.547840370700E-02
H30 -1.086735589099E-01 -1.845713254671E-01  4.845215962930E-01
H31 -1.086735589099E-01 -3.154286745329E-01 -1.547840370700E-02
H32  1.086735589099E-01  1.845713254671E-01 -4.845215962930E-01
C33  1.943787872537E-01  3.932878641502E-01  2.178190329420E-01
C34 -1.943787872537E-01 -1.067121358498E-01  2.821809670580E-01
C35 -1.943787872537E-01 -3.932878641502E-01 -2.178190329420E-01
C36  1.943787872537E-01  1.067121358498E-01 -2.821809670580E-01
H37  2.322133910129E-01  3.173315103323E-01  1.476130305579E-01
H38 -2.322133910129E-01 -1.826684896677E-01  3.523869694420E-01
H39 -2.322133910129E-01 -3.173315103323E-01 -1.476130305579E-01
H40  2.322133910129E-01  1.826684896677E-01 -3.523869694421E-01
C41  2.143424239150E-01  4.985980459445E-01  3.960327477376E-01
C42 -2.143424239150E-01 -1.401954055479E-03  1.039672522624E-01
C43 -2.143424239150E-01 -4.985980459445E-01 -3.960327477376E-01
C44  2.143424239150E-01  1.401954055479E-03 -1.039672522624E-01
C45  2.920124320093E-01 -4.971833123461E-01  4.789883420039E-01
C46 -2.920124320093E-01  2.816687653851E-03  2.101165799613E-02
C47 -2.920124320093E-01  4.971833123461E-01 -4.789883420039E-01
C48  2.920124320093E-01 -2.816687653851E-03 -2.101165799613E-02
C49  3.072636214647E-01 -4.335087860473E-01 -3.085791469914E-01
C50 -3.072636214647E-01  6.649121395272E-02 -1.914208530086E-01
C51 -3.072636214647E-01  4.335087860473E-01  3.085791469914E-01
C52  3.072636214647E-01 -6.649121395272E-02  1.914208530086E-01
H53  2.654224224108E-01 -4.046710555911E-01 -2.138496455834E-01
H54 -2.654224224108E-01  9.532894440890E-02 -2.861503544166E-01
H55 -2.654224224108E-01  4.046710555911E-01  2.138496455834E-01
H56  2.654224224108E-01 -9.532894440890E-02  2.861503544166E-01
C57  3.781300155662E-01 -4.138922873308E-01 -2.335402975707E-01
C58 -3.781300155662E-01  8.610771266917E-02 -2.664597024293E-01
C59 -3.781300155662E-01  4.138922873308E-01  2.335402975707E-01
C60  3.781300155662E-01 -8.610771266917E-02  2.664597024293E-01
H61  3.866070038543E-01 -3.718587463872E-01 -8.572109410578E-02
H62 -3.866070038543E-01  1.281412536128E-01 -4.142789058942E-01
H63 -3.866070038543E-01  3.718587463872E-01  8.572109410578E-02
H64  3.866070038543E-01 -1.281412536128E-01  4.142789058942E-01
C65  4.404197689071E-01 -4.560815719101E-01 -3.644072782487E-01
C66 -4.404197689071E-01  4.391842808992E-02 -1.355927217513E-01
C67 -4.404197689071E-01  4.560815719101E-01  3.644072782487E-01
C68  4.404197689071E-01 -4.391842808992E-02  1.355927217513E-01
C69  4.261328279217E-01  4.722988914982E-01  4.255128651083E-01
C70 -4.261328279217E-01 -2.770110850183E-02  7.448713489170E-02
C71 -4.261328279217E-01 -4.722988914982E-01 -4.255128651083E-01
C72  4.261328279217E-01  2.770110850183E-02 -7.448713489170E-02
C73  3.510123534538E-01  4.519347679636E-01  3.542504446345E-01
C74 -3.510123534538E-01 -4.806523203642E-02  1.457495553655E-01
C75 -3.510123534538E-01 -4.519347679636E-01 -3.542504446345E-01
C76  3.510123534538E-01  4.806523203642E-02 -1.457495553655E-01
H77  3.413770303884E-01  4.045940639031E-01  2.091566671382E-01
H78 -3.413770303884E-01 -9.540593609686E-02  2.908433328618E-01
H79 -3.413770303884E-01 -4.045940639031E-01 -2.091566671382E-01
H80  3.413770303884E-01  9.540593609686E-02 -2.908433328618E-01
C81 -4.863809814800E-01 -4.298828311410E-01 -2.947450779773E-01
C82  4.863809814800E-01  7.011716885901E-02 -2.052549220227E-01
C83  4.863809814800E-01  4.298828311410E-01  2.947450779773E-01
C84 -4.863809814800E-01 -7.011716885901E-02  2.052549220227E-01
H85 -4.769469874388E-01 -3.804691606242E-01 -1.503929334570E-01
H86  4.769469874388E-01  1.195308393758E-01 -3.496070665430E-01
H87  4.769469874388E-01  3.804691606242E-01  1.503929334570E-01
H88 -4.769469874388E-01 -1.195308393758E-01  3.496070665430E-01


#===END

data_OPT_STEP_4

_symmetry_space_group_name_H-M 'P 1'
_cell_length_a     17.96900889
_cell_length_b      7.26393818
_cell_length_c      6.31554614
_cell_angle_alpha   90.000000
_cell_angle_beta   90.734991
_cell_angle_gamma   90.000000

loop_
_atom_site_label
_atom_site_fract_x
_atom_site_fract_y
_atom_site_fract_z
C1  1.596904325406E-01 -3.918987766671E-01  4.875675840774E-01
C2 -1.596904325406E-01  1.081012233329E-01  1.243241592255E-02
C3 -1.596904325406E-01  3.918987766671E-01 -4.875675840774E-01
C4  1.596904325406E-01 -1.081012233329E-01 -1.243241592255E-02
H5  1.730239959115E-01 -3.062279012141E-01 -3.929199237545E-01
H6 -1.730239959115E-01  1.937720987859E-01 -1.070800762455E-01
H7 -1.730239959115E-01  3.062279012141E-01  3.929199237545E-01
H8  1.730239959115E-01 -1.937720987859E-01  1.070800762455E-01
C9  8.681708812399E-02 -3.964477965785E-01  4.122216634836E-01
C10 -8.681708812399E-02  1.035522034215E-01  8.777833651638E-02
C11 -8.681708812399E-02  3.964477965785E-01 -4.122216634836E-01
C12  8.681708812399E-02 -1.035522034215E-01 -8.777833651638E-02
H13  4.790526371003E-02 -3.194759991243E-01  4.825216409850E-01
H14 -4.790526371003E-02  1.805240008757E-01  1.747835901496E-02
H15 -4.790526371003E-02  3.194759991243E-01 -4.825216409850E-01
H16  4.790526371003E-02 -1.805240008757E-01 -1.747835901497E-02
C17  6.766532049530E-02  4.943719377776E-01  2.401256386762E-01
C18 -6.766532049530E-02 -5.628062222366E-03  2.598743613238E-01
C19 -6.766532049530E-02 -4.943719377776E-01 -2.401256386762E-01
C20  6.766532049530E-02  5.628062222365E-03 -2.598743613238E-01
H21  1.509974101244E-02  4.932626987967E-01  1.841500444948E-01
H22 -1.509974101244E-02 -6.737301203339E-03  3.158499555052E-01
H23 -1.509974101244E-02 -4.932626987967E-01 -1.841500444948E-01
H24  1.509974101244E-02  6.737301203339E-03 -3.158499555052E-01
C25  1.216789288837E-01  3.862464299958E-01  1.459058929714E-01
C26 -1.216789288837E-01 -1.137535700042E-01  3.540941070286E-01
C27 -1.216789288837E-01 -3.862464299958E-01 -1.459058929714E-01
C28  1.216789288837E-01  1.137535700042E-01 -3.540941070286E-01
H29  1.086184187384E-01  3.081586066173E-01  1.951383495269E-02
H30 -1.086184187384E-01 -1.918413933827E-01  4.804861650473E-01
H31 -1.086184187384E-01 -3.081586066173E-01 -1.951383495269E-02
H32  1.086184187384E-01  1.918413933827E-01 -4.804861650473E-01
C33  1.940521295917E-01  3.858789356001E-01  2.254382299386E-01
C34 -1.940521295917E-01 -1.141210643999E-01  2.745617700614E-01
C35 -1.940521295917E-01 -3.858789356001E-01 -2.254382299386E-01
C36  1.940521295917E-01  1.141210643999E-01 -2.745617700614E-01
H37  2.319056916857E-01  3.023167500694E-01  1.597682384673E-01
H38 -2.319056916857E-01 -1.976832499306E-01  3.402317615327E-01
H39 -2.319056916857E-01 -3.023167500694E-01 -1.597682384673E-01
H40  2.319056916857E-01  1.976832499306E-01 -3.402317615327E-01
C41  2.146004966740E-01  4.974858392123E-01  3.970427144211E-01
C42 -2.146004966740E-01 -2.514160787736E-03  1.029572855789E-01
C43 -2.146004966740E-01 -4.974858392123E-01 -3.970427144211E-01
C44  2.146004966740E-01  2.514160787736E-03 -1.029572855789E-01
C45  2.923011213990E-01 -4.973431475452E-01  4.786105088404E-01
C46 -2.923011213990E-01  2.656852454833E-03  2.138949115963E-02
C47 -2.923011213990E-01  4.973431475452E-01 -4.786105088404E-01
C48  2.923011213990E-01 -2.656852454833E-03 -2.138949115963E-02
C49  3.075537690572E-01 -4.388970322598E-01 -3.085855161226E-01
C50 -3.075537690572E-01  6.110296774020E-02 -1.914144838774E-01
C51 -3.075537690572E-01  4.388970322598E-01  3.085855161226E-01
C52  3.075537690572E-01 -6.110296774020E-02  1.914144838774E-01
H53  2.649891590436E-01 -4.146519337586E-01 -2.106808292997E-01
H54 -2.649891590436E-01  8.534806624143E-02 -2.893191707003E-01
H55 -2.649891590436E-01  4.146519337586E-01  2.106808292997E-01
H56  2.649891590436E-01 -8.534806624143E-02  2.893191707003E-01
C57  3.784376604294E-01 -4.171835338443E-01 -2.348031735080E-01
C58 -3.784376604294E-01  8.281646615569E-02 -2.651968264920E-01
C59 -3.784376604294E-01  4.171835338443E-01  2.348031735080E-01
C60  3.784376604294E-01 -8.281646615569E-02  2.651968264920E-01
H61  3.873406603128E-01 -3.725012839981E-01 -8.603679647402E-02
H62 -3.873406603128E-01  1.274987160019E-01 -4.139632035260E-01
H63 -3.873406603128E-01  3.725012839981E-01  8.603679647402E-02
H64  3.873406603128E-01 -1.274987160019E-01  4.139632035260E-01
C65  4.405405160124E-01 -4.573574078395E-01 -3.652884254672E-01
C66 -4.405405160124E-01  4.264259216050E-02 -1.347115745328E-01
C67 -4.405405160124E-01  4.573574078395E-01  3.652884254672E-01
C68  4.405405160124E-01 -4.264259216050E-02  1.347115745328E-01
C69  4.262058909579E-01  4.714652413078E-01  4.261634493145E-01
C70 -4.262058909579E-01 -2.853475869222E-02  7.383655068550E-02
C71 -4.262058909579E-01 -4.714652413078E-01 -4.261634493145E-01
C72  4.262058909579E-01  2.853475869222E-02 -7.383655068550E-02
C73  3.512297566155E-01  4.555533473229E-01  3.530985359144E-01
C74 -3.512297566155E-01 -4.444665267705E-02  1.469014640856E-01
C75 -3.512297566155E-01 -4.555533473229E-01 -3.530985359144E-01
C76  3.512297566155E-01  4.444665267705E-02 -1.469014640856E-01
H77  3.415241419794E-01  4.075599900728E-01  2.060286510607E-01
H78 -3.415241419794E-01 -9.244000992719E-02  2.939713489393E-01
H79 -3.415241419794E-01 -4.075599900728E-01 -2.060286510607E-01
H80  3.415241419794E-01  9.244000992719E-02 -2.939713489393E-01
C81 -4.863380273226E-01 -4.289210980303E-01 -2.967815878013E-01
C82  4.863380273226E-01  7.107890196966E-02 -2.032184121987E-01
C83  4.863380273226E-01  4.289210980303E-01  2.967815878013E-01
C84 -4.863380273226E-01 -7.107890196966E-02  2.032184121987E-01
H85 -4.767138787909E-01 -3.781369205234E-01 -1.508858947289E-01
H86  4.767138787909E-01  1.218630794766E-01 -3.491141052711E-01
H87  4.767138787909E-01  3.781369205234E-01  1.508858947289E-01
H88 -4.767138787909E-01 -1.218630794766E-01  3.491141052711E-01


#===END

data_OPT_STEP_5

_symmetry_space_group_name_H-M 'P 1'
_cell_length_a     17.89583260
_cell_length_b      7.34674244
_cell_length_c      6.25673159
_cell_angle_alpha   90.000000
_cell_angle_beta   90.123689
_cell_angle_gamma   90.000000

loop_
_atom_site_label
_atom_site_fract_x
_atom_site_fract_y
_atom_site_fract_z
C1  1.594944622045E-01 -3.858301218291E-01  4.877020866397E-01
C2 -1.594944622045E-01  1.141698781709E-01  1.229791336029E-02
C3 -1.594944622045E-01  3.858301218291E-01 -4.877020866397E-01
C4  1.594944622045E-01 -1.141698781709E-01 -1.229791336029E-02
H5  1.742209673621E-01 -2.863372570023E-01 -4.024266379630E-01
H6 -1.742209673621E-01  2.136627429977E-01 -9.757336203697E-02
H7 -1.742209673621E-01  2.863372570023E-01  4.024266379630E-01
H8  1.742209673621E-01 -2.136627429977E-01  9.757336203697E-02
C9  8.652737330205E-02 -3.901634846406E-01  4.122270509085E-01
C10 -8.652737330205E-02  1.098365153594E-01  8.777294909153E-02
C11 -8.652737330205E-02  3.901634846406E-01 -4.122270509085E-01
C12  8.652737330205E-02 -1.098365153594E-01 -8.777294909153E-02
H13  4.699478549756E-02 -3.103896714133E-01  4.831851545256E-01
H14 -4.699478549756E-02  1.896103285867E-01  1.681484547437E-02
H15 -4.699478549756E-02  3.103896714133E-01 -4.831851545256E-01
H16  4.699478549756E-02 -1.896103285867E-01 -1.681484547437E-02
C17  6.681415598446E-02  4.937922589146E-01  2.460882050473E-01
C18 -6.681415598446E-02 -6.207741085420E-03  2.539117949527E-01
C19 -6.681415598446E-02 -4.937922589146E-01 -2.460882050473E-01
C20  6.681415598446E-02  6.207741085420E-03 -2.539117949527E-01
H21  1.349313127773E-02  4.940273090963E-01  1.870329636306E-01
H22 -1.349313127773E-02 -5.972690903700E-03  3.129670363694E-01
H23 -1.349313127773E-02 -4.940273090963E-01 -1.870329636306E-01
H24  1.349313127773E-02  5.972690903700E-03 -3.129670363694E-01
C25  1.204355578733E-01  3.786572817033E-01  1.580858822310E-01
C26 -1.204355578733E-01 -1.213427182967E-01  3.419141177690E-01
C27 -1.204355578733E-01 -3.786572817033E-01 -1.580858822310E-01
C28  1.204355578733E-01  1.213427182967E-01 -3.419141177690E-01
H29  1.065432503496E-01  2.903879171674E-01  3.719738750607E-02
H30 -1.065432503496E-01 -2.096120828326E-01  4.628026124939E-01
H31 -1.065432503496E-01 -2.903879171674E-01 -3.719738750607E-02
H32  1.065432503496E-01  2.096120828326E-01 -4.628026124939E-01
C33  1.926732478210E-01  3.769054063647E-01  2.391266257693E-01
C34 -1.926732478210E-01 -1.230945936353E-01  2.608733742307E-01
C35 -1.926732478210E-01 -3.769054063647E-01 -2.391266257693E-01
C36  1.926732478210E-01  1.230945936353E-01 -2.608733742307E-01
H37  2.291005075100E-01  2.716744167973E-01  1.910364552495E-01
H38 -2.291005075100E-01 -2.283255832027E-01  3.089635447505E-01
H39 -2.291005075100E-01 -2.716744167973E-01 -1.910364552495E-01
H40  2.291005075100E-01  2.283255832027E-01 -3.089635447505E-01
C41  2.139370459987E-01  4.973014074398E-01  4.027387004423E-01
C42 -2.139370459987E-01 -2.698592560183E-03  9.726129955768E-02
C43 -2.139370459987E-01 -4.973014074398E-01 -4.027387004423E-01
C44  2.139370459987E-01  2.698592560182E-03 -9.726129955768E-02
C45  2.915159437190E-01 -4.994603716890E-01  4.849659056040E-01
C46 -2.915159437190E-01  5.396283109549E-04  1.503409439595E-02
C47 -2.915159437190E-01  4.994603716890E-01 -4.849659056040E-01
C48  2.915159437190E-01 -5.396283109551E-04 -1.503409439595E-02
C49  3.067231273545E-01 -4.338429658162E-01 -3.040743137886E-01
C50 -3.067231273545E-01  6.615703418384E-02 -1.959256862114E-01
C51 -3.067231273545E-01  4.338429658162E-01  3.040743137886E-01
C52  3.067231273545E-01 -6.615703418384E-02  1.959256862114E-01
H53  2.632089761401E-01 -4.202020285951E-01 -1.981437198861E-01
H54 -2.632089761401E-01  7.979797140494E-02 -3.018562801139E-01
H55 -2.632089761401E-01  4.202020285951E-01  1.981437198861E-01
H56  2.632089761401E-01 -7.979797140494E-02  3.018562801139E-01
C57  3.779096331693E-01 -4.117275388611E-01 -2.319747037086E-01
C58 -3.779096331693E-01  8.827246113891E-02 -2.680252962914E-01
C59 -3.779096331693E-01  4.117275388611E-01  2.319747037086E-01
C60  3.779096331693E-01 -8.827246113891E-02  2.680252962914E-01
H61  3.871597370742E-01 -3.700058765754E-01 -7.821489267190E-02
H62 -3.871597370742E-01  1.299941234246E-01 -4.217851073281E-01
H63 -3.871597370742E-01  3.700058765754E-01  7.821489267190E-02
H64  3.871597370742E-01 -1.299941234246E-01  4.217851073281E-01
C65  4.402485722216E-01 -4.528516974579E-01 -3.646987851707E-01
C66 -4.402485722216E-01  4.714830254211E-02 -1.353012148293E-01
C67 -4.402485722216E-01  4.528516974579E-01  3.646987851707E-01
C68  4.402485722216E-01 -4.714830254211E-02  1.353012148293E-01
C69  4.259618863012E-01  4.771261962662E-01  4.251179371173E-01
C70 -4.259618863012E-01 -2.287380373385E-02  7.488206288268E-02
C71 -4.259618863012E-01 -4.771261962662E-01 -4.251179371173E-01
C72  4.259618863012E-01  2.287380373385E-02 -7.488206288268E-02
C73  3.506746148508E-01  4.514599004281E-01  3.581678746932E-01
C74 -3.506746148508E-01 -4.854009957193E-02  1.418321253068E-01
C75 -3.506746148508E-01 -4.514599004281E-01 -3.581678746932E-01
C76  3.506746148508E-01  4.854009957193E-02 -1.418321253068E-01
H77  3.411091274055E-01  4.081993163082E-01  2.049360449254E-01
H78 -3.411091274055E-01 -9.180068369182E-02  2.950639550746E-01
H79 -3.411091274055E-01 -4.081993163082E-01 -2.049360449254E-01
H80  3.411091274055E-01  9.180068369182E-02 -2.950639550746E-01
C81 -4.862822427240E-01 -4.372423027511E-01 -2.916635612396E-01
C82  4.862822427240E-01  6.275769724891E-02 -2.083364387604E-01
C83  4.862822427240E-01  4.372423027511E-01  2.916635612396E-01
C84 -4.862822427240E-01 -6.275769724891E-02  2.083364387604E-01
H85 -4.764490020521E-01 -3.956396059740E-01 -1.376100321464E-01
H86  4.764490020521E-01  1.043603940260E-01 -3.623899678536E-01
H87  4.764490020521E-01  3.956396059740E-01  1.376100321464E-01
H88 -4.764490020521E-01 -1.043603940260E-01  3.623899678536E-01


#===END

data_OPT_STEP_6

_symmetry_space_group_name_H-M 'P 1'
_cell_length_a     17.85996718
_cell_length_b      7.51877726
_cell_length_c      6.21140064
_cell_angle_alpha   90.000000
_cell_angle_beta   90.621382
_cell_angle_gamma   90.000000

loop_
_atom_site_label
_atom_site_fract_x
_atom_site_fract_y
_atom_site_fract_z
C1  1.600798183930E-01 -3.639866349618E-01  4.840027577268E-01
C2 -1.600798183930E-01  1.360133650382E-01  1.599724227315E-02
C3 -1.600798183930E-01  3.639866349618E-01 -4.840027577268E-01
C4  1.600798183930E-01 -1.360133650382E-01 -1.599724227315E-02
H5  1.777514982654E-01 -2.408287080719E-01 -4.264696520315E-01
H6 -1.777514982654E-01  2.591712919281E-01 -7.353034796850E-02
H7 -1.777514982654E-01  2.408287080719E-01  4.264696520315E-01
H8  1.777514982654E-01 -2.591712919281E-01  7.353034796850E-02
C9  8.615957360888E-02 -3.755637953088E-01  4.128120769089E-01
C10 -8.615957360888E-02  1.244362046912E-01  8.718792309109E-02
C11 -8.615957360888E-02  3.755637953088E-01 -4.128120769089E-01
C12  8.615957360888E-02 -1.244362046912E-01 -8.718792309109E-02
H13  4.649962375421E-02 -2.913019092744E-01  4.812342860176E-01
H14 -4.649962375421E-02  2.086980907256E-01  1.876571398236E-02
H15 -4.649962375421E-02  2.913019092744E-01 -4.812342860176E-01
H16  4.649962375421E-02 -2.086980907256E-01 -1.876571398236E-02
C17  6.456949044029E-02  4.939037863297E-01  2.609100012302E-01
C18 -6.456949044029E-02 -6.096213670299E-03  2.390899987698E-01
C19 -6.456949044029E-02 -4.939037863297E-01 -2.609100012302E-01
C20  6.456949044029E-02  6.096213670298E-03 -2.390899987698E-01
H21  1.069437383318E-02  4.970490113493E-01  1.941154825728E-01
H22 -1.069437383318E-02 -2.950988650681E-03  3.058845174272E-01
H23 -1.069437383318E-02 -4.970490113493E-01 -1.941154825728E-01
H24  1.069437383318E-02  2.950988650681E-03 -3.058845174272E-01
C25  1.158376239991E-01  3.584133562849E-01  1.956937667895E-01
C26 -1.158376239991E-01 -1.415866437151E-01  3.043062332105E-01
C27 -1.158376239991E-01 -3.584133562849E-01 -1.956937667895E-01
C28  1.158376239991E-01  1.415866437151E-01 -3.043062332105E-01
H29  9.781339976500E-02  2.330095410230E-01  1.056511322913E-01
H30 -9.781339976500E-02 -2.669904589770E-01  3.943488677087E-01
H31 -9.781339976500E-02 -2.330095410230E-01 -1.056511322913E-01
H32  9.781339976500E-02  2.669904589770E-01 -3.943488677087E-01
C33  1.894176917526E-01  3.692000451720E-01  2.683608311946E-01
C34 -1.894176917526E-01 -1.307999548280E-01  2.316391688054E-01
C35 -1.894176917526E-01 -3.692000451720E-01 -2.683608311946E-01
C36  1.894176917526E-01  1.307999548280E-01 -2.316391688054E-01
H37  2.243413377135E-01  2.461852828894E-01  2.383753281776E-01
H38 -2.243413377135E-01 -2.538147171106E-01  2.616246718224E-01
H39 -2.243413377135E-01 -2.461852828894E-01 -2.383753281776E-01
H40  2.243413377135E-01  2.538147171106E-01 -2.616246718224E-01
C41  2.130850081677E-01 -4.907458849852E-01  4.123290190640E-01
C42 -2.130850081677E-01  9.254115014809E-03  8.767098093600E-02
C43 -2.130850081677E-01  4.907458849852E-01 -4.123290190640E-01
C44  2.130850081677E-01 -9.254115014809E-03 -8.767098093600E-02
C45  2.914597840298E-01 -4.806823495755E-01  4.891601268354E-01
C46 -2.914597840298E-01  1.931765042451E-02  1.083987316462E-02
C47 -2.914597840298E-01  4.806823495755E-01 -4.891601268354E-01
C48  2.914597840298E-01 -1.931765042451E-02 -1.083987316462E-02
C49  3.085061576404E-01 -4.160941849573E-01 -2.994454942620E-01
C50 -3.085061576404E-01  8.390581504266E-02 -2.005545057380E-01
C51 -3.085061576404E-01  4.160941849573E-01  2.994454942620E-01
C52  3.085061576404E-01 -8.390581504266E-02  2.005545057380E-01
H53  2.649744887265E-01 -4.089028446132E-01 -1.865538619451E-01
H54 -2.649744887265E-01  9.109715538684E-02 -3.134461380549E-01
H55 -2.649744887265E-01  4.089028446132E-01  1.865538619451E-01
H56  2.649744887265E-01 -9.109715538684E-02  3.134461380549E-01
C57  3.805537354464E-01 -4.004005222204E-01 -2.285230035651E-01
C58 -3.805537354464E-01  9.959947777964E-02 -2.714769964349E-01
C59 -3.805537354464E-01  4.004005222204E-01  2.285230035651E-01
C60  3.805537354464E-01 -9.959947777964E-02  2.714769964349E-01
H61  3.916225387996E-01 -3.622598763976E-01 -6.991024758824E-02
H62 -3.916225387996E-01  1.377401236024E-01 -4.300897524118E-01
H63 -3.916225387996E-01  3.622598763976E-01  6.991024758824E-02
H64  3.916225387996E-01 -1.377401236024E-01  4.300897524118E-01
C65  4.416081861841E-01 -4.456552485513E-01 -3.636337673598E-01
C66 -4.416081861841E-01  5.434475144867E-02 -1.363662326402E-01
C67 -4.416081861841E-01  4.456552485513E-01  3.636337673598E-01
C68  4.416081861841E-01 -5.434475144867E-02  1.363662326402E-01
C69  4.251418391123E-01  4.812033175812E-01  4.278642565096E-01
C70 -4.251418391123E-01 -1.879668241884E-02  7.213574349042E-02
C71 -4.251418391123E-01 -4.812033175812E-01 -4.278642565096E-01
C72  4.251418391123E-01  1.879668241884E-02 -7.213574349042E-02
C73  3.492195817450E-01  4.668382021332E-01  3.599761027450E-01
C74 -3.492195817450E-01 -3.316179786678E-02  1.400238972550E-01
C75 -3.492195817450E-01 -4.668382021332E-01 -3.599761027450E-01
C76  3.492195817450E-01  3.316179786677E-02 -1.400238972550E-01
H77  3.381364490263E-01  4.299651077233E-01  2.004328601247E-01
H78 -3.381364490263E-01 -7.003489227674E-02  2.995671398753E-01
H79 -3.381364490263E-01 -4.299651077233E-01 -2.004328601247E-01
H80  3.381364490263E-01  7.003489227674E-02 -2.995671398753E-01
C81 -4.841834294792E-01 -4.254831916342E-01 -2.972402805953E-01
C82  4.841834294792E-01  7.451680836580E-02 -2.027597194047E-01
C83  4.841834294792E-01  4.254831916342E-01  2.972402805953E-01
C84 -4.841834294792E-01 -7.451680836580E-02  2.027597194047E-01
H85 -4.726847485815E-01 -3.779746386296E-01 -1.427092718774E-01
H86  4.726847485815E-01  1.220253613704E-01 -3.572907281226E-01
H87  4.726847485815E-01  3.779746386296E-01  1.427092718774E-01
H88 -4.726847485815E-01 -1.220253613704E-01  3.572907281226E-01


#===END

data_OPT_STEP_7

_symmetry_space_group_name_H-M 'P 1'
_cell_length_a     17.80971923
_cell_length_b      7.24169158
_cell_length_c      6.32530670
_cell_angle_alpha   90.000000
_cell_angle_beta   90.768718
_cell_angle_gamma   90.000000

loop_
_atom_site_label
_atom_site_fract_x
_atom_site_fract_y
_atom_site_fract_z
C1  1.575025300985E-01 -3.881132726451E-01 -4.977598363058E-01
C2 -1.575025300985E-01  1.118867273549E-01 -2.240163694236E-03
C3 -1.575025300985E-01  3.881132726451E-01  4.977598363058E-01
C4  1.575025300985E-01 -1.118867273549E-01  2.240163694236E-03
H5  1.718458914004E-01 -2.942758293565E-01 -3.818438038095E-01
H6 -1.718458914004E-01  2.057241706435E-01 -1.181561961905E-01
H7 -1.718458914004E-01  2.942758293565E-01  3.818438038095E-01
H8  1.718458914004E-01 -2.057241706435E-01  1.181561961905E-01
C9  8.436568349880E-02 -3.900314498149E-01  4.232716657183E-01
C10 -8.436568349880E-02  1.099685501851E-01  7.672833428168E-02
C11 -8.436568349880E-02  3.900314498149E-01 -4.232716657183E-01
C12  8.436568349880E-02 -1.099685501851E-01 -7.672833428168E-02
H13  4.495724527509E-02 -2.999347949081E-01  4.868295337909E-01
H14 -4.495724527509E-02  2.000652050919E-01  1.317046620910E-02
H15 -4.495724527509E-02  2.999347949081E-01 -4.868295337909E-01
H16  4.495724527509E-02 -2.000652050919E-01 -1.317046620910E-02
C17  6.385689508073E-02  4.875172196518E-01  2.648665907983E-01
C18 -6.385689508073E-02 -1.248278034821E-02  2.351334092017E-01
C19 -6.385689508073E-02 -4.875172196518E-01 -2.648665907983E-01
C20  6.385689508073E-02  1.248278034821E-02 -2.351334092017E-01
H21  1.008859098773E-02  4.916607511573E-01  1.965467297742E-01
H22 -1.008859098773E-02 -8.339248842715E-03  3.034532702258E-01
H23 -1.008859098773E-02 -4.916607511573E-01 -1.965467297742E-01
H24  1.008859098773E-02  8.339248842715E-03 -3.034532702258E-01
C25  1.181529772982E-01  3.767273617739E-01  1.780192845497E-01
C26 -1.181529772982E-01 -1.232726382261E-01  3.219807154503E-01
C27 -1.181529772982E-01 -3.767273617739E-01 -1.780192845497E-01
C28  1.181529772982E-01  1.232726382261E-01 -3.219807154503E-01
H29  1.049910873507E-01  2.953665381226E-01  4.999310680351E-02
H30 -1.049910873507E-01 -2.046334618774E-01  4.500068931965E-01
H31 -1.049910873507E-01 -2.953665381226E-01 -4.999310680351E-02
H32  1.049910873507E-01  2.046334618774E-01 -4.500068931965E-01
C33  1.908040103067E-01  3.767054644067E-01  2.589592894439E-01
C34 -1.908040103067E-01 -1.232945355933E-01  2.410407105561E-01
C35 -1.908040103067E-01 -3.767054644067E-01 -2.589592894439E-01
C36  1.908040103067E-01  1.232945355933E-01 -2.410407105561E-01
H37  2.297766603724E-01  2.886920969326E-01  1.981518684720E-01
H38 -2.297766603724E-01 -2.113079030674E-01  3.018481315280E-01
H39 -2.297766603724E-01 -2.886920969326E-01 -1.981518684720E-01
H40  2.297766603724E-01  2.113079030674E-01 -3.018481315280E-01
C41  2.122581103214E-01  4.974660038752E-01  4.185772647633E-01
C42 -2.122581103214E-01 -2.533996124804E-03  8.142273523670E-02
C43 -2.122581103214E-01 -4.974660038752E-01 -4.185772647633E-01
C44  2.122581103214E-01  2.533996124804E-03 -8.142273523670E-02
C45  2.908701071043E-01 -4.923609879799E-01  4.932071919402E-01
C46 -2.908701071043E-01  7.639012020067E-03  6.792808059818E-03
C47 -2.908701071043E-01  4.923609879799E-01 -4.932071919402E-01
C48  2.908701071043E-01 -7.639012020068E-03 -6.792808059818E-03
C49  3.079694660555E-01 -4.283247670220E-01 -2.979528625256E-01
C50 -3.079694660555E-01  7.167523297803E-02 -2.020471374744E-01
C51 -3.079694660555E-01  4.283247670220E-01  2.979528625256E-01
C52  3.079694660555E-01 -7.167523297803E-02  2.020471374744E-01
H53  2.644304057633E-01 -4.102031720429E-01 -1.912042821808E-01
H54 -2.644304057633E-01  8.979682795712E-02 -3.087957178192E-01
H55 -2.644304057633E-01  4.102031720429E-01  1.912042821808E-01
H56  2.644304057633E-01 -8.979682795712E-02  3.087957178192E-01
C57  3.802155827627E-01 -4.089626575463E-01 -2.289653867825E-01
C58 -3.802155827627E-01  9.103734245374E-02 -2.710346132175E-01
C59 -3.802155827627E-01  4.089626575463E-01  2.289653867825E-01
C60  3.802155827627E-01 -9.103734245374E-02  2.710346132175E-01
H61  3.914077289851E-01 -3.665954533158E-01 -7.385565106598E-02
H62 -3.914077289851E-01  1.334045466842E-01 -4.261443489340E-01
H63 -3.914077289851E-01  3.665954533158E-01  7.385565106598E-02
H64  3.914077289851E-01 -1.334045466842E-01  4.261443489340E-01
C65  4.414285506412E-01 -4.504406622647E-01 -3.637928949694E-01
C66 -4.414285506412E-01  4.955933773529E-02 -1.362071050306E-01
C67 -4.414285506412E-01  4.504406622647E-01  3.637928949694E-01
C68  4.414285506412E-01 -4.955933773529E-02  1.362071050306E-01
C69  4.250097848156E-01  4.826838416451E-01  4.270256528117E-01
C70 -4.250097848156E-01 -1.731615835494E-02  7.297434718829E-02
C71 -4.250097848156E-01 -4.826838416451E-01 -4.270256528117E-01
C72  4.250097848156E-01  1.731615835494E-02 -7.297434718829E-02
C73  3.488468745575E-01  4.621818192772E-01  3.621966848863E-01
C74 -3.488468745575E-01 -3.781818072276E-02  1.378033151137E-01
C75 -3.488468745575E-01 -4.621818192772E-01 -3.621966848863E-01
C76  3.488468745575E-01  3.781818072276E-02 -1.378033151137E-01
H77  3.375977134958E-01  4.212526748822E-01  2.061779548875E-01
H78 -3.375977134958E-01 -7.874732511780E-02  2.938220451125E-01
H79 -3.375977134958E-01 -4.212526748822E-01 -2.061779548875E-01
H80  3.375977134958E-01  7.874732511780E-02 -2.938220451125E-01
C81 -4.841161252338E-01 -4.368781260241E-01 -2.942903937108E-01
C82  4.841161252338E-01  6.312187397588E-02 -2.057096062892E-01
C83  4.841161252338E-01  4.368781260241E-01  2.942903937108E-01
C84 -4.841161252338E-01 -6.312187397588E-02  2.057096062892E-01
H85 -4.725596212221E-01 -3.884302136387E-01 -1.417873244865E-01
H86  4.725596212221E-01  1.115697863613E-01 -3.582126755135E-01
H87  4.725596212221E-01  3.884302136387E-01  1.417873244865E-01
H88 -4.725596212221E-01 -1.115697863613E-01  3.582126755135E-01


#===END

data_OPT_STEP_8

_symmetry_space_group_name_H-M 'P 1'
_cell_length_a     17.74613297
_cell_length_b      7.15608225
_cell_length_c      6.35377092
_cell_angle_alpha   90.000000
_cell_angle_beta   90.670780
_cell_angle_gamma   90.000000

loop_
_atom_site_label
_atom_site_fract_x
_atom_site_fract_y
_atom_site_fract_z
C1  1.568291406920E-01 -3.908304043487E-01 -4.938145415555E-01
C2 -1.568291406920E-01  1.091695956513E-01 -6.185458444537E-03
C3 -1.568291406920E-01  3.908304043487E-01  4.938145415555E-01
C4  1.568291406920E-01 -1.091695956513E-01  6.185458444537E-03
H5  1.718484049934E-01 -2.912737137776E-01 -3.810589117698E-01
H6 -1.718484049934E-01  2.087262862224E-01 -1.189410882302E-01
H7 -1.718484049934E-01  2.912737137776E-01  3.810589117698E-01
H8  1.718484049934E-01 -2.087262862224E-01  1.189410882302E-01
C9  8.337637610618E-02 -3.934829738805E-01  4.285284031210E-01
C10 -8.337637610618E-02  1.065170261195E-01  7.147159687903E-02
C11 -8.337637610618E-02  3.934829738805E-01 -4.285284031210E-01
C12  8.337637610618E-02 -1.065170261195E-01 -7.147159687903E-02
H13  4.369775562362E-02 -2.979186016072E-01  4.897317809121E-01
H14 -4.369775562362E-02  2.020813983928E-01  1.026821908795E-02
H15 -4.369775562362E-02  2.979186016072E-01 -4.897317809121E-01
H16  4.369775562362E-02 -2.020813983928E-01 -1.026821908795E-02
C17  6.350918556335E-02  4.888441193127E-01  2.653598159219E-01
C18 -6.350918556335E-02 -1.115588068733E-02  2.346401840781E-01
C19 -6.350918556335E-02 -4.888441193127E-01 -2.653598159219E-01
C20  6.350918556335E-02  1.115588068733E-02 -2.346401840781E-01
H21  8.929954198700E-03  4.927047210564E-01  1.962073146108E-01
H22 -8.929954198700E-03 -7.295278943640E-03  3.037926853892E-01
H23 -8.929954198700E-03 -4.927047210564E-01 -1.962073146108E-01
H24  8.929954198700E-03  7.295278943640E-03 -3.037926853892E-01
C25  1.181682040383E-01  3.783218259951E-01  1.775470802093E-01
C26 -1.181682040383E-01 -1.216781740049E-01  3.224529197907E-01
C27 -1.181682040383E-01 -3.783218259951E-01 -1.775470802093E-01
C28  1.181682040383E-01  1.216781740049E-01 -3.224529197907E-01
H29  1.043773139917E-01  2.901947413555E-01  5.298794441528E-02
H30 -1.043773139917E-01 -2.098052586446E-01  4.470120555847E-01
H31 -1.043773139917E-01 -2.901947413554E-01 -5.298794441528E-02
H32  1.043773139917E-01  2.098052586445E-01 -4.470120555847E-01
C33  1.914475192821E-01  3.821997395983E-01  2.544445168222E-01
C34 -1.914475192821E-01 -1.178002604017E-01  2.455554831778E-01
C35 -1.914475192821E-01 -3.821997395983E-01 -2.544445168222E-01
C36  1.914475192821E-01  1.178002604017E-01 -2.455554831778E-01
H37  2.310878223315E-01  2.929459357857E-01  1.937662116109E-01
H38 -2.310878223315E-01 -2.070540642143E-01  3.062337883891E-01
H39 -2.310878223315E-01 -2.929459357857E-01 -1.937662116109E-01
H40  2.310878223315E-01  2.070540642143E-01 -3.062337883891E-01
C41  2.119347544946E-01  4.954533295430E-01  4.208477979087E-01
C42 -2.119347544946E-01 -4.546670456988E-03  7.915220209127E-02
C43 -2.119347544946E-01 -4.954533295430E-01 -4.208477979087E-01
C44  2.119347544946E-01  4.546670456988E-03 -7.915220209127E-02
C45  2.904765496057E-01 -4.972236121946E-01  4.963283709141E-01
C46 -2.904765496057E-01  2.776387805410E-03  3.671629085941E-03
C47 -2.904765496057E-01  4.972236121946E-01 -4.963283709141E-01
C48  2.904765496057E-01 -2.776387805411E-03 -3.671629085941E-03
C49  3.073687207148E-01 -4.384493189344E-01 -2.935137740211E-01
C50 -3.073687207148E-01  6.155068106560E-02 -2.064862259789E-01
C51 -3.073687207148E-01  4.384493189344E-01  2.935137740211E-01
C52  3.073687207148E-01 -6.155068106560E-02  2.064862259789E-01
H53  2.631285811411E-01 -4.189225556153E-01 -1.861618942494E-01
H54 -2.631285811411E-01  8.107744438467E-02 -3.138381057506E-01
H55 -2.631285811411E-01  4.189225556153E-01  1.861618942494E-01
H56  2.631285811411E-01 -8.107744438467E-02  3.138381057506E-01
C57  3.798699817817E-01 -4.183314040088E-01 -2.254843801962E-01
C58 -3.798699817817E-01  8.166859599117E-02 -2.745156198038E-01
C59 -3.798699817817E-01  4.183314040088E-01  2.254843801962E-01
C60  3.798699817817E-01 -8.166859599117E-02  2.745156198038E-01
H61  3.915435941447E-01 -3.737829401962E-01 -6.947775985015E-02
H62 -3.915435941447E-01  1.262170598038E-01 -4.305222401499E-01
H63 -3.915435941447E-01  3.737829401962E-01  6.947775985015E-02
H64  3.915435941447E-01 -1.262170598038E-01  4.305222401499E-01
C65  4.412800034537E-01 -4.586228257421E-01 -3.604219073169E-01
C66 -4.412800034537E-01  4.137717425787E-02 -1.395780926831E-01
C67 -4.412800034537E-01  4.586228257421E-01  3.604219073169E-01
C68  4.412800034537E-01 -4.137717425787E-02  1.395780926831E-01
C69  4.249199587943E-01  4.750167524679E-01  4.308684266815E-01
C70 -4.249199587943E-01 -2.498324753214E-02  6.913157331847E-02
C71 -4.249199587943E-01 -4.750167524679E-01 -4.308684266815E-01
C72  4.249199587943E-01  2.498324753214E-02 -6.913157331847E-02
C73  3.485817316964E-01  4.584446017601E-01  3.648404902916E-01
C74 -3.485817316964E-01 -4.155539823986E-02  1.351595097084E-01
C75 -3.485817316964E-01 -4.584446017601E-01 -3.648404902916E-01
C76  3.485817316964E-01  4.155539823986E-02 -1.351595097084E-01
H77  3.370652748191E-01  4.180101540877E-01  2.067376412815E-01
H78 -3.370652748191E-01 -8.198984591225E-02  2.932623587185E-01
H79 -3.370652748191E-01 -4.180101540877E-01 -2.067376412815E-01
H80  3.370652748191E-01  8.198984591225E-02 -2.932623587185E-01
C81 -4.842277373918E-01 -4.325594378781E-01 -2.970386343267E-01
C82  4.842277373918E-01  6.744056212193E-02 -2.029613656733E-01
C83  4.842277373918E-01  4.325594378781E-01  2.970386343267E-01
C84 -4.842277373918E-01 -6.744056212193E-02  2.029613656733E-01
H85 -4.724917594399E-01 -3.839749994901E-01 -1.425346222937E-01
H86  4.724917594399E-01  1.160250005099E-01 -3.574653777063E-01
H87  4.724917594399E-01  3.839749994901E-01  1.425346222937E-01
H88 -4.724917594399E-01 -1.160250005099E-01  3.574653777063E-01


#===END

data_OPT_STEP_9

_symmetry_space_group_name_H-M 'P 1'
_cell_length_a     17.69073289
_cell_length_b      7.03802459
_cell_length_c      6.34014832
_cell_angle_alpha   90.000000
_cell_angle_beta   90.359330
_cell_angle_gamma   90.000000

loop_
_atom_site_label
_atom_site_fract_x
_atom_site_fract_y
_atom_site_fract_z
C1  1.567017836194E-01 -3.819487169764E-01 -4.950231178471E-01
C2 -1.567017836194E-01  1.180512830236E-01 -4.976882152857E-03
C3 -1.567017836194E-01  3.819487169764E-01  4.950231178471E-01
C4  1.567017836194E-01 -1.180512830236E-01  4.976882152857E-03
H5  1.715295443697E-01 -2.828057992184E-01 -3.779064022977E-01
H6 -1.715295443697E-01  2.171942007816E-01 -1.220935977023E-01
H7 -1.715295443697E-01  2.828057992184E-01  3.779064022977E-01
H8  1.715295443697E-01 -2.171942007816E-01  1.220935977023E-01
C9  8.336747550700E-02 -3.835444555769E-01  4.262145360739E-01
C10 -8.336747550700E-02  1.164555444231E-01  7.378546392607E-02
C11 -8.336747550700E-02  3.835444555769E-01 -4.262145360739E-01
C12  8.336747550700E-02 -1.164555444231E-01 -7.378546392607E-02
H13  4.320981510172E-02 -2.816826585245E-01  4.856019673804E-01
H14 -4.320981510172E-02  2.183173414755E-01  1.439803261958E-02
H15 -4.320981510172E-02  2.816826585245E-01 -4.856019673804E-01
H16  4.320981510172E-02 -2.183173414755E-01 -1.439803261958E-02
C17  6.300260353502E-02  4.923331912097E-01  2.673811147148E-01
C18 -6.300260353502E-02 -7.666808790310E-03  2.326188852852E-01
C19 -6.300260353502E-02 -4.923331912097E-01 -2.673811147148E-01
C20  6.300260353502E-02  7.666808790309E-03 -2.326188852852E-01
H21  7.294945009445E-03  4.971639575170E-01  1.976692763039E-01
H22 -7.294945009445E-03 -2.836042482988E-03  3.023307236961E-01
H23 -7.294945009445E-03 -4.971639575170E-01 -1.976692763039E-01
H24  7.294945009445E-03  2.836042482987E-03 -3.023307236961E-01
C25  1.166259795253E-01  3.682699773747E-01  1.897817620889E-01
C26 -1.166259795253E-01 -1.317300226253E-01  3.102182379111E-01
C27 -1.166259795253E-01 -3.682699773747E-01 -1.897817620889E-01
C28  1.166259795253E-01  1.317300226253E-01 -3.102182379111E-01
H29  1.023977675703E-01  2.740958170087E-01  6.623923463771E-02
H30 -1.023977675703E-01 -2.259041829913E-01  4.337607653623E-01
H31 -1.023977675703E-01 -2.740958170087E-01 -6.623923463771E-02
H32  1.023977675703E-01  2.259041829913E-01 -4.337607653623E-01
C33  1.889363868974E-01  3.622358010223E-01  2.759050850070E-01
C34 -1.889363868974E-01 -1.377641989777E-01  2.240949149930E-01
C35 -1.889363868974E-01 -3.622358010223E-01 -2.759050850070E-01
C36  1.889363868974E-01  1.377641989777E-01 -2.240949149930E-01
H37  2.288679144804E-01  2.654751938637E-01  2.202312556267E-01
H38 -2.288679144804E-01 -2.345248061363E-01  2.797687443733E-01
H39 -2.288679144804E-01 -2.654751938637E-01 -2.202312556267E-01
H40  2.288679144804E-01  2.345248061363E-01 -2.797687443733E-01
C41  2.111839568762E-01  4.948010856270E-01  4.266240947407E-01
C42 -2.111839568762E-01 -5.198914373001E-03  7.337590525931E-02
C43 -2.111839568762E-01 -4.948010856270E-01 -4.266240947407E-01
C44  2.111839568762E-01  5.198914373000E-03 -7.337590525931E-02
C45  2.900482229631E-01 -4.947395895661E-01  4.993931376475E-01
C46 -2.900482229631E-01  5.260410433926E-03  6.068623524536E-04
C47 -2.900482229631E-01  4.947395895661E-01 -4.993931376475E-01
C48  2.900482229631E-01 -5.260410433926E-03 -6.068623524537E-04
C49  3.070017474272E-01 -4.343112291855E-01 -2.907981625563E-01
C50 -3.070017474272E-01  6.568877081449E-02 -2.092018374437E-01
C51 -3.070017474272E-01  4.343112291855E-01  2.907981625563E-01
C52  3.070017474272E-01 -6.568877081449E-02  2.092018374437E-01
H53  2.619868181994E-01 -3.965873754262E-01 -1.877956364883E-01
H54 -2.619868181994E-01  1.034126245738E-01 -3.122043635117E-01
H55 -2.619868181994E-01  3.965873754262E-01  1.877956364883E-01
H56  2.619868181994E-01 -1.034126245738E-01  3.122043635117E-01
C57  3.797529957451E-01 -4.175908889062E-01 -2.228194504919E-01
C58 -3.797529957451E-01  8.240911109384E-02 -2.771805495081E-01
C59 -3.797529957451E-01  4.175908889062E-01  2.228194504919E-01
C60  3.797529957451E-01 -8.240911109384E-02  2.771805495081E-01
H61  3.921651705503E-01 -3.717224267590E-01 -6.385692176124E-02
H62 -3.921651705503E-01  1.282775732410E-01 -4.361430782388E-01
H63 -3.921651705503E-01  3.717224267590E-01  6.385692176124E-02
H64  3.921651705503E-01 -1.282775732410E-01  4.361430782388E-01
C65  4.412182630959E-01 -4.588540650413E-01 -3.587430499860E-01
C66 -4.412182630959E-01  4.114593495871E-02 -1.412569500140E-01
C67 -4.412182630959E-01  4.588540650413E-01  3.587430499860E-01
C68  4.412182630959E-01 -4.114593495871E-02  1.412569500140E-01
C69  4.247128267734E-01  4.740806302960E-01  4.324375389876E-01
C70 -4.247128267734E-01 -2.591936970398E-02  6.756246101241E-02
C71 -4.247128267734E-01 -4.740806302960E-01 -4.324375389876E-01
C72  4.247128267734E-01  2.591936970398E-02 -6.756246101241E-02
C73  3.481944654888E-01  4.614515052754E-01  3.661325417301E-01
C74 -3.481944654888E-01 -3.854849472461E-02  1.338674582699E-01
C75 -3.481944654888E-01 -4.614515052754E-01 -3.661325417301E-01
C76  3.481944654888E-01  3.854849472461E-02 -1.338674582699E-01
H77  3.363810124871E-01  4.227865825335E-01  2.037768062021E-01
H78 -3.363810124871E-01 -7.721341746645E-02  2.962231937979E-01
H79 -3.363810124871E-01 -4.227865825335E-01 -2.037768062021E-01
H80  3.363810124871E-01  7.721341746645E-02 -2.962231937979E-01
C81 -4.840525737095E-01 -4.323318161085E-01 -2.966750305352E-01
C82  4.840525737095E-01  6.766818389146E-02 -2.033249694648E-01
C83  4.840525737095E-01  4.323318161085E-01  2.966750305352E-01
C84 -4.840525737095E-01 -6.766818389146E-02  2.033249694648E-01
H85 -4.718363339932E-01 -3.817771040687E-01 -1.392879688493E-01
H86  4.718363339932E-01  1.182228959313E-01 -3.607120311507E-01
H87  4.718363339932E-01  3.817771040687E-01  1.392879688493E-01
H88 -4.718363339932E-01 -1.182228959313E-01  3.607120311507E-01


#===END

data_OPT_STEP_10

_symmetry_space_group_name_H-M 'P 1'
_cell_length_a     17.72541434
_cell_length_b      7.02451795
_cell_length_c      6.33611454
_cell_angle_alpha   90.000000
_cell_angle_beta   90.120825
_cell_angle_gamma   90.000000

loop_
_atom_site_label
_atom_site_fract_x
_atom_site_fract_y
_atom_site_fract_z
C1  1.588328727896E-01 -3.641517117623E-01  4.866706181721E-01
C2 -1.588328727896E-01  1.358482882377E-01  1.332938182793E-02
C3 -1.588328727896E-01  3.641517117623E-01 -4.866706181721E-01
C4  1.588328727896E-01 -1.358482882377E-01 -1.332938182793E-02
H5  1.736997464559E-01 -2.668734515411E-01 -3.923531536605E-01
H6 -1.736997464559E-01  2.331265484589E-01 -1.076468463395E-01
H7 -1.736997464559E-01  2.668734515411E-01  3.923531536605E-01
H8  1.736997464559E-01 -2.331265484589E-01  1.076468463395E-01
C9  8.548313674079E-02 -3.670033650974E-01  4.108414609334E-01
C10 -8.548313674079E-02  1.329966349026E-01  8.915853906664E-02
C11 -8.548313674079E-02  3.670033650974E-01 -4.108414609334E-01
C12  8.548313674079E-02 -1.329966349026E-01 -8.915853906664E-02
H13  4.484487118407E-02 -2.665884822584E-01  4.734668532455E-01
H14 -4.484487118407E-02  2.334115177416E-01  2.653314675445E-02
H15 -4.484487118407E-02  2.665884822584E-01 -4.734668532455E-01
H16  4.484487118407E-02 -2.334115177416E-01 -2.653314675445E-02
C17  6.411384453862E-02 -4.974964775660E-01  2.577763768877E-01
C18 -6.411384453862E-02  2.503522433974E-03  2.422236231123E-01
C19 -6.411384453862E-02  4.974964775660E-01 -2.577763768877E-01
C20  6.411384453862E-02 -2.503522433974E-03 -2.422236231123E-01
H21  7.445786025618E-03 -4.945792007211E-01  1.933046344726E-01
H22 -7.445786025618E-03  5.420799278868E-03  3.066953655274E-01
H23 -7.445786025618E-03  4.945792007211E-01 -1.933046344726E-01
H24  7.445786025618E-03 -5.420799278868E-03 -3.066953655274E-01
C25  1.169656607477E-01  3.754047223842E-01  1.797499319067E-01
C26 -1.169656607477E-01 -1.245952776158E-01  3.202500680933E-01
C27 -1.169656607477E-01 -3.754047223842E-01 -1.797499319067E-01
C28  1.169656607477E-01  1.245952776158E-01 -3.202500680933E-01
H29  1.012966297185E-01  2.715576343593E-01  6.295197534110E-02
H30 -1.012966297185E-01 -2.284423656407E-01  4.370480246589E-01
H31 -1.012966297185E-01 -2.715576343593E-01 -6.295197534110E-02
H32  1.012966297185E-01  2.284423656407E-01 -4.370480246589E-01
C33  1.903788780899E-01  3.794362156982E-01  2.545995365995E-01
C34 -1.903788780899E-01 -1.205637843018E-01  2.454004634005E-01
C35 -1.903788780899E-01 -3.794362156982E-01 -2.545995365995E-01
C36  1.903788780899E-01  1.205637843018E-01 -2.454004634005E-01
H37  2.309858834672E-01  2.856539739448E-01  1.937241690162E-01
H38 -2.309858834672E-01 -2.143460260552E-01  3.062758309838E-01
H39 -2.309858834672E-01 -2.856539739448E-01 -1.937241690162E-01
H40  2.309858834672E-01  2.143460260552E-01 -3.062758309838E-01
C41  2.126993877505E-01 -4.902061741402E-01  4.081342575289E-01
C42 -2.126993877505E-01  9.793825859814E-03  9.186574247109E-02
C43 -2.126993877505E-01  4.902061741402E-01 -4.081342575289E-01
C44  2.126993877505E-01 -9.793825859815E-03 -9.186574247109E-02
C45  2.905791308367E-01 -4.893809162362E-01  4.880363810931E-01
C46 -2.905791308367E-01  1.061908376382E-02  1.196361890695E-02
C47 -2.905791308367E-01  4.893809162362E-01 -4.880363810931E-01
C48  2.905791308367E-01 -1.061908376382E-02 -1.196361890695E-02
C49  3.060119035805E-01 -4.367024078302E-01 -2.983005032324E-01
C50 -3.060119035805E-01  6.329759216980E-02 -2.016994967676E-01
C51 -3.060119035805E-01  4.367024078302E-01  2.983005032324E-01
C52  3.060119035805E-01 -6.329759216980E-02  2.016994967676E-01
H53  2.600042466718E-01 -3.958664613503E-01 -1.970982007316E-01
H54 -2.600042466718E-01  1.041335386497E-01 -3.029017992684E-01
H55 -2.600042466718E-01  3.958664613503E-01  1.970982007316E-01
H56  2.600042466718E-01 -1.041335386497E-01  3.029017992684E-01
C57  3.781311747185E-01 -4.209744978102E-01 -2.270547908848E-01
C58 -3.781311747185E-01  7.902550218976E-02 -2.729452091152E-01
C59 -3.781311747185E-01  4.209744978102E-01  2.270547908848E-01
C60  3.781311747185E-01 -7.902550218976E-02  2.729452091152E-01
H61  3.898953364782E-01 -3.724201711641E-01 -6.735853600997E-02
H62 -3.898953364782E-01  1.275798288359E-01 -4.326414639900E-01
H63 -3.898953364782E-01  3.724201711641E-01  6.735853600997E-02
H64  3.898953364782E-01 -1.275798288359E-01  4.326414639900E-01
C65  4.403697632555E-01 -4.608697374357E-01 -3.605916376495E-01
C66 -4.403697632555E-01  3.913026256431E-02 -1.394083623505E-01
C67 -4.403697632555E-01  4.608697374357E-01  3.605916376495E-01
C68  4.403697632555E-01 -3.913026256431E-02  1.394083623505E-01
C69  4.252953360311E-01  4.776485632175E-01  4.273875896352E-01
C70 -4.252953360311E-01 -2.235143678253E-02  7.261241036478E-02
C71 -4.252953360311E-01 -4.776485632175E-01 -4.273875896352E-01
C72  4.252953360311E-01  2.235143678253E-02 -7.261241036478E-02
C73  3.493546345025E-01  4.638347165218E-01  3.588125773264E-01
C74 -3.493546345025E-01 -3.616528347824E-02  1.411874226736E-01
C75 -3.493546345025E-01 -4.638347165218E-01 -3.588125773264E-01
C76  3.493546345025E-01  3.616528347824E-02 -1.411874226736E-01
H77  3.383792311787E-01  4.232605986508E-01  1.957046513709E-01
H78 -3.383792311787E-01 -7.673940134921E-02  3.042953486291E-01
H79 -3.383792311787E-01 -4.232605986508E-01 -1.957046513709E-01
H80  3.383792311787E-01  7.673940134921E-02 -3.042953486291E-01
C81 -4.854064826642E-01 -4.402085618452E-01 -2.923642838207E-01
C82  4.854064826642E-01  5.979143815484E-02 -2.076357161793E-01
C83  4.854064826642E-01  4.402085618452E-01  2.923642838207E-01
C84 -4.854064826642E-01 -5.979143815484E-02  2.076357161793E-01
H85 -4.739480437062E-01 -3.913465822800E-01 -1.321195689615E-01
H86  4.739480437062E-01  1.086534177200E-01 -3.678804310385E-01
H87  4.739480437062E-01  3.913465822800E-01  1.321195689615E-01
H88 -4.739480437062E-01 -1.086534177200E-01  3.678804310385E-01


#===END

data_OPT_STEP_11

_symmetry_space_group_name_H-M 'P 1'
_cell_length_a     17.71355949
_cell_length_b      6.90842815
_cell_length_c      6.27230572
_cell_angle_alpha   90.000000
_cell_angle_beta   89.651203
_cell_angle_gamma   90.000000

loop_
_atom_site_label
_atom_site_fract_x
_atom_site_fract_y
_atom_site_fract_z
C1  1.587676444042E-01 -3.728340819627E-01  4.900897177719E-01
C2 -1.587676444042E-01  1.271659180373E-01  9.910282228105E-03
C3 -1.587676444042E-01  3.728340819627E-01 -4.900897177719E-01
C4  1.587676444042E-01 -1.271659180373E-01 -9.910282228106E-03
H5  1.740202937470E-01 -2.732571195143E-01 -3.871817190981E-01
H6 -1.740202937470E-01  2.267428804857E-01 -1.128182809019E-01
H7 -1.740202937470E-01  2.732571195143E-01  3.871817190981E-01
H8  1.740202937470E-01 -2.267428804857E-01  1.128182809019E-01
C9  8.620114873664E-02 -3.681359606389E-01  4.089650079374E-01
C10 -8.620114873664E-02  1.318640393611E-01  9.103499206264E-02
C11 -8.620114873664E-02  3.681359606389E-01 -4.089650079374E-01
C12  8.620114873664E-02 -1.318640393611E-01 -9.103499206264E-02
H13  4.543155934750E-02 -2.673845091975E-01  4.738932493439E-01
H14 -4.543155934750E-02  2.326154908025E-01  2.610675065609E-02
H15 -4.543155934750E-02  2.673845091975E-01 -4.738932493439E-01
H16  4.543155934750E-02 -2.326154908025E-01 -2.610675065609E-02
C17  6.501707232785E-02 -4.961685942695E-01  2.500374680141E-01
C18 -6.501707232785E-02  3.831405730486E-03  2.499625319859E-01
C19 -6.501707232785E-02  4.961685942695E-01 -2.500374680141E-01
C20  6.501707232785E-02 -3.831405730487E-03 -2.499625319859E-01
H21  7.745760879501E-03 -4.946716688096E-01  1.907340505721E-01
H22 -7.745760879501E-03  5.328331190419E-03  3.092659494279E-01
H23 -7.745760879501E-03  4.946716688096E-01 -1.907340505721E-01
H24  7.745760879501E-03 -5.328331190419E-03 -3.092659494279E-01
C25  1.175132340614E-01  3.742357205263E-01  1.675751259277E-01
C26 -1.175132340614E-01 -1.257642794737E-01  3.324248740723E-01
C27 -1.175132340614E-01 -3.742357205263E-01 -1.675751259277E-01
C28  1.175132340614E-01  1.257642794737E-01 -3.324248740723E-01
H29  1.011771302802E-01  2.671278019858E-01  5.045777257370E-02
H30 -1.011771302802E-01 -2.328721980142E-01  4.495422274263E-01
H31 -1.011771302802E-01 -2.671278019858E-01 -5.045777257370E-02
H32  1.011771302802E-01  2.328721980142E-01 -4.495422274263E-01
C33  1.906353223788E-01  3.735625500959E-01  2.446624703654E-01
C34 -1.906353223788E-01 -1.264374499041E-01  2.553375296346E-01
C35 -1.906353223788E-01 -3.735625500959E-01 -2.446624703654E-01
C36  1.906353223788E-01  1.264374499041E-01 -2.553375296346E-01
H37  2.305212058927E-01  2.692441705162E-01  1.881407560151E-01
H38 -2.305212058927E-01 -2.307558294838E-01  3.118592439849E-01
H39 -2.305212058927E-01 -2.692441705162E-01 -1.881407560151E-01
H40  2.305212058927E-01  2.307558294838E-01 -3.118592439849E-01
C41  2.123211395793E-01  4.974938374188E-01  4.087188774579E-01
C42 -2.123211395793E-01 -2.506162581204E-03  9.128112254209E-02
C43 -2.123211395793E-01 -4.974938374188E-01 -4.087188774579E-01
C44  2.123211395793E-01  2.506162581204E-03 -9.128112254209E-02
C45  2.901742794435E-01  4.960984028902E-01  4.906761873523E-01
C46 -2.901742794435E-01 -3.901597109792E-03  9.323812647700E-03
C47 -2.901742794435E-01 -4.960984028902E-01 -4.906761873523E-01
C48  2.901742794435E-01  3.901597109792E-03 -9.323812647700E-03
C49  3.047848102363E-01 -4.483304970874E-01 -2.943364807537E-01
C50 -3.047848102363E-01  5.166950291265E-02 -2.056635192463E-01
C51 -3.047848102363E-01  4.483304970874E-01  2.943364807537E-01
C52  3.047848102363E-01 -5.166950291265E-02  2.056635192463E-01
H53  2.580699606286E-01 -4.167568658845E-01 -1.883818131332E-01
H54 -2.580699606286E-01  8.324313411554E-02 -3.116181868668E-01
H55 -2.580699606286E-01  4.167568658845E-01  1.883818131332E-01
H56  2.580699606286E-01 -8.324313411554E-02  3.116181868668E-01
C57  3.765888808214E-01 -4.283122030073E-01 -2.230453298816E-01
C58 -3.765888808214E-01  7.168779699265E-02 -2.769546701184E-01
C59 -3.765888808214E-01  4.283122030073E-01  2.230453298816E-01
C60  3.765888808214E-01 -7.168779699265E-02  2.769546701184E-01
H61  3.875382554429E-01 -3.789335772022E-01 -6.183111592210E-02
H62 -3.875382554429E-01  1.210664227978E-01 -4.381688840779E-01
H63 -3.875382554429E-01  3.789335772022E-01  6.183111592210E-02
H64  3.875382554429E-01 -1.210664227978E-01  4.381688840779E-01
C65  4.395652049801E-01 -4.629863606705E-01 -3.591788082015E-01
C66 -4.395652049801E-01  3.701363932948E-02 -1.408211917985E-01
C67 -4.395652049801E-01  4.629863606705E-01  3.591788082015E-01
C68  4.395652049801E-01 -3.701363932948E-02  1.408211917985E-01
C69  4.255757422876E-01  4.699696156408E-01  4.287968575518E-01
C70 -4.255757422876E-01 -3.003038435919E-02  7.120314244816E-02
C71 -4.255757422876E-01 -4.699696156408E-01 -4.287968575518E-01
C72  4.255757422876E-01  3.003038435919E-02 -7.120314244816E-02
C73  3.498576901542E-01  4.506521000648E-01  3.606663950903E-01
C74 -3.498576901542E-01 -4.934789993521E-02  1.393336049097E-01
C75 -3.498576901542E-01 -4.506521000648E-01 -3.606663950903E-01
C76  3.498576901542E-01  4.934789993521E-02 -1.393336049097E-01
H77  3.399193989281E-01  4.083860617228E-01  1.966057576996E-01
H78 -3.399193989281E-01 -9.161393827717E-02  3.033942423004E-01
H79 -3.399193989281E-01 -4.083860617228E-01 -1.966057576996E-01
H80  3.399193989281E-01  9.161393827717E-02 -3.033942423004E-01
C81 -4.864937720013E-01 -4.327629025723E-01 -2.933202589369E-01
C82  4.864937720013E-01  6.723709742773E-02 -2.066797410631E-01
C83  4.864937720013E-01  4.327629025723E-01  2.933202589369E-01
C84 -4.864937720013E-01 -6.723709742773E-02  2.066797410631E-01
H85 -4.757905750992E-01 -3.749664174801E-01 -1.353602362442E-01
H86  4.757905750992E-01  1.250335825199E-01 -3.646397637558E-01
H87  4.757905750992E-01  3.749664174801E-01  1.353602362442E-01
H88 -4.757905750992E-01 -1.250335825199E-01  3.646397637558E-01


#===END

data_OPT_STEP_12

_symmetry_space_group_name_H-M 'P 1'
_cell_length_a     17.72810857
_cell_length_b      6.92457095
_cell_length_c      6.22337820
_cell_angle_alpha   90.000000
_cell_angle_beta   89.532487
_cell_angle_gamma   90.000000

loop_
_atom_site_label
_atom_site_fract_x
_atom_site_fract_y
_atom_site_fract_z
C1  1.572714534799E-01 -3.674472755084E-01  4.917643014633E-01
C2 -1.572714534799E-01  1.325527244916E-01  8.235698536734E-03
C3 -1.572714534799E-01  3.674472755084E-01 -4.917643014633E-01
C4  1.572714534799E-01 -1.325527244916E-01 -8.235698536734E-03
H5  1.725787207886E-01 -2.623381821747E-01 -3.880531826268E-01
H6 -1.725787207886E-01  2.376618178253E-01 -1.119468173732E-01
H7 -1.725787207886E-01  2.623381821747E-01  3.880531826268E-01
H8  1.725787207886E-01 -2.376618178253E-01  1.119468173732E-01
C9  8.460909809630E-02 -3.680852398385E-01  4.124058319335E-01
C10 -8.460909809630E-02  1.319147601615E-01  8.759416806646E-02
C11 -8.460909809630E-02  3.680852398385E-01 -4.124058319335E-01
C12  8.460909809630E-02 -1.319147601615E-01 -8.759416806646E-02
H13  4.340689652312E-02 -2.674365627232E-01  4.764638512355E-01
H14 -4.340689652312E-02  2.325634372768E-01  2.353614876454E-02
H15 -4.340689652312E-02  2.674365627232E-01 -4.764638512355E-01
H16  4.340689652312E-02 -2.325634372768E-01 -2.353614876454E-02
C17  6.469763012507E-02 -4.929138497763E-01  2.482947417252E-01
C18 -6.469763012507E-02  7.086150223701E-03  2.517052582748E-01
C19 -6.469763012507E-02  4.929138497763E-01 -2.482947417252E-01
C20  6.469763012507E-02 -7.086150223701E-03 -2.517052582748E-01
H21  7.201311709975E-03 -4.945903682457E-01  1.905335567779E-01
H22 -7.201311709975E-03  5.409631754252E-03  3.094664432221E-01
H23 -7.201311709975E-03  4.945903682457E-01 -1.905335567779E-01
H24  7.201311709975E-03 -5.409631754252E-03 -3.094664432221E-01
C25  1.183686085062E-01  3.851699946233E-01  1.591397333568E-01
C26 -1.183686085062E-01 -1.148300053767E-01  3.408602666432E-01
C27 -1.183686085062E-01 -3.851699946233E-01 -1.591397333568E-01
C28  1.183686085062E-01  1.148300053767E-01 -3.408602666432E-01
H29  1.027021496753E-01  2.800669124175E-01  3.798682909678E-02
H30 -1.027021496753E-01 -2.199330875825E-01  4.620131709032E-01
H31 -1.027021496753E-01 -2.800669124175E-01 -3.798682909678E-02
H32  1.027021496753E-01  2.199330875825E-01 -4.620131709032E-01
C33  1.914920306502E-01  3.881388511328E-01  2.358235214514E-01
C34 -1.914920306502E-01 -1.118611488672E-01  2.641764785486E-01
C35 -1.914920306502E-01 -3.881388511328E-01 -2.358235214514E-01
C36  1.914920306502E-01  1.118611488672E-01 -2.641764785486E-01
H37  2.317358128917E-01  2.815536708405E-01  1.807320135784E-01
H38 -2.317358128917E-01 -2.184463291595E-01  3.192679864216E-01
H39 -2.317358128917E-01 -2.815536708405E-01 -1.807320135784E-01
H40  2.317358128917E-01  2.184463291595E-01 -3.192679864216E-01
C41  2.119804174842E-01 -4.906721059278E-01  4.050869298269E-01
C42 -2.119804174842E-01  9.327894072247E-03  9.491307017315E-02
C43 -2.119804174842E-01  4.906721059278E-01 -4.050869298269E-01
C44  2.119804174842E-01 -9.327894072247E-03 -9.491307017315E-02
C45  2.902274164616E-01 -4.845763340245E-01  4.840637533935E-01
C46 -2.902274164616E-01  1.542366597555E-02  1.593624660654E-02
C47 -2.902274164616E-01  4.845763340245E-01 -4.840637533935E-01
C48  2.902274164616E-01 -1.542366597555E-02 -1.593624660654E-02
C49  3.050248645208E-01 -4.218501708993E-01 -3.025415066117E-01
C50 -3.050248645208E-01  7.814982910072E-02 -1.974584933883E-01
C51 -3.050248645208E-01  4.218501708993E-01  3.025415066117E-01
C52  3.050248645208E-01 -7.814982910072E-02  1.974584933883E-01
H53  2.581655214602E-01 -3.920548843256E-01 -1.944235267779E-01
H54 -2.581655214602E-01  1.079451156744E-01 -3.055764732221E-01
H55 -2.581655214602E-01  3.920548843256E-01  1.944235267779E-01
H56  2.581655214602E-01 -1.079451156744E-01  3.055764732221E-01
C57  3.767388912622E-01 -4.074505167460E-01 -2.289651534668E-01
C58 -3.767388912622E-01  9.254948325396E-02 -2.710348465332E-01
C59 -3.767388912622E-01  4.074505167460E-01  2.289651534668E-01
C60  3.767388912622E-01 -9.254948325396E-02  2.710348465332E-01
H61  3.875872863088E-01 -3.591359702322E-01 -6.604748969266E-02
H62 -3.875872863088E-01  1.408640297678E-01 -4.339525103073E-01
H63 -3.875872863088E-01  3.591359702322E-01  6.604748969266E-02
H64  3.875872863088E-01 -1.408640297678E-01  4.339525103073E-01
C65  4.396318432651E-01 -4.521693617243E-01 -3.623138465616E-01
C66 -4.396318432651E-01  4.783063827569E-02 -1.376861534384E-01
C67 -4.396318432651E-01  4.521693617243E-01  3.623138465616E-01
C68  4.396318432651E-01 -4.783063827569E-02  1.376861534384E-01
C69  4.254642603071E-01  4.772943106829E-01  4.260590270600E-01
C70 -4.254642603071E-01 -2.270568931706E-02  7.394097293996E-02
C71 -4.254642603071E-01 -4.772943106829E-01 -4.260590270600E-01
C72  4.254642603071E-01  2.270568931706E-02 -7.394097293996E-02
C73  3.498581392216E-01  4.673813026385E-01  3.538527528653E-01
C74 -3.498581392216E-01 -3.261869736154E-02  1.461472471347E-01
C75 -3.498581392216E-01 -4.673813026385E-01 -3.538527528653E-01
C76  3.498581392216E-01  3.261869736154E-02 -1.461472471347E-01
H77  3.400277619268E-01  4.264450042607E-01  1.880846244319E-01
H78 -3.400277619268E-01 -7.355499573931E-02  3.119153755681E-01
H79 -3.400277619268E-01 -4.264450042607E-01 -1.880846244319E-01
H80  3.400277619268E-01  7.355499573931E-02 -3.119153755681E-01
C81 -4.863390750719E-01 -4.274624352245E-01 -2.946412385981E-01
C82  4.863390750719E-01  7.253756477549E-02 -2.053587614019E-01
C83  4.863390750719E-01  4.274624352245E-01  2.946412385981E-01
C84 -4.863390750719E-01 -7.253756477549E-02  2.053587614019E-01
H85 -4.755240046928E-01 -3.662366047455E-01 -1.371566500740E-01
H86  4.755240046928E-01  1.337633952545E-01 -3.628433499260E-01
H87  4.755240046928E-01  3.662366047455E-01  1.371566500740E-01
H88 -4.755240046928E-01 -1.337633952545E-01  3.628433499260E-01


#===END

data_OPT_STEP_13

_symmetry_space_group_name_H-M 'P 1'
_cell_length_a     17.72085019
_cell_length_b      6.90950441
_cell_length_c      6.25960732
_cell_angle_alpha   90.000000
_cell_angle_beta   89.664383
_cell_angle_gamma   90.000000

loop_
_atom_site_label
_atom_site_fract_x
_atom_site_fract_y
_atom_site_fract_z
C1  1.584521686429E-01 -3.715092350357E-01  4.905578553824E-01
C2 -1.584521686429E-01  1.284907649643E-01  9.442144617586E-03
C3 -1.584521686429E-01  3.715092350357E-01 -4.905578553824E-01
C4  1.584521686429E-01 -1.284907649643E-01 -9.442144617586E-03
H5  1.737539349017E-01 -2.704539776827E-01 -3.873895696507E-01
H6 -1.737539349017E-01  2.295460223173E-01 -1.126104303493E-01
H7 -1.737539349017E-01  2.704539776827E-01  3.873895696507E-01
H8  1.737539349017E-01 -2.295460223173E-01  1.126104303493E-01
C9  8.584885316130E-02 -3.682293256816E-01  4.099450654715E-01
C10 -8.584885316130E-02  1.317706743184E-01  9.005493452851E-02
C11 -8.584885316130E-02  3.682293256816E-01 -4.099450654715E-01
C12  8.584885316130E-02 -1.317706743184E-01 -9.005493452851E-02
H13  4.499492449726E-02 -2.674747003039E-01  4.746564097109E-01
H14 -4.499492449726E-02  2.325252996961E-01  2.534359028913E-02
H15 -4.499492449726E-02  2.674747003039E-01 -4.746564097109E-01
H16  4.499492449726E-02 -2.325252996961E-01 -2.534359028913E-02
C17  6.494574649839E-02 -4.954778135041E-01  2.496770242257E-01
C18 -6.494574649839E-02  4.522186495918E-03  2.503229757743E-01
C19 -6.494574649839E-02  4.954778135041E-01 -2.496770242257E-01
C20  6.494574649839E-02 -4.522186495918E-03 -2.503229757743E-01
H21  7.620703410994E-03 -4.947126552664E-01  1.907079907174E-01
H22 -7.620703410994E-03  5.287344733558E-03  3.092920092826E-01
H23 -7.620703410994E-03  4.947126552664E-01 -1.907079907174E-01
H24  7.620703410994E-03 -5.287344733559E-03 -3.092920092826E-01
C25  1.176968270275E-01  3.767933606736E-01  1.655352012262E-01
C26 -1.176968270275E-01 -1.232066393264E-01  3.344647987738E-01
C27 -1.176968270275E-01 -3.767933606736E-01 -1.655352012262E-01
C28  1.176968270275E-01  1.232066393264E-01 -3.344647987738E-01
H29  1.014967895718E-01  2.701412524017E-01  4.740736607464E-02
H30 -1.014967895718E-01 -2.298587475983E-01  4.525926339254E-01
H31 -1.014967895718E-01 -2.701412524017E-01 -4.740736607464E-02
H32  1.014967895718E-01  2.298587475983E-01 -4.525926339254E-01
C33  1.908307437766E-01  3.770934611930E-01  2.424704841250E-01
C34 -1.908307437766E-01 -1.229065388070E-01  2.575295158750E-01
C35 -1.908307437766E-01 -3.770934611930E-01 -2.424704841250E-01
C36  1.908307437766E-01  1.229065388070E-01 -2.575295158750E-01
H37  2.307789091122E-01  2.721486962337E-01  1.863155021880E-01
H38 -2.307789091122E-01 -2.278513037663E-01  3.136844978120E-01
H39 -2.307789091122E-01 -2.721486962337E-01 -1.863155021880E-01
H40  2.307789091122E-01  2.278513037663E-01 -3.136844978120E-01
C41  2.122641003514E-01 -4.995630403431E-01  4.078008093055E-01
C42 -2.122641003514E-01  4.369596569391E-04  9.219919069451E-02
C43 -2.122641003514E-01  4.995630403431E-01 -4.078008093055E-01
C44  2.122641003514E-01 -4.369596569393E-04 -9.219919069451E-02
C45  2.902254375683E-01 -4.990278114574E-01  4.889841044017E-01
C46 -2.902254375683E-01  9.721885425540E-04  1.101589559834E-02
C47 -2.902254375683E-01  4.990278114574E-01 -4.889841044017E-01
C48  2.902254375683E-01 -9.721885425542E-04 -1.101589559834E-02
C49  3.049332594136E-01 -4.416560135986E-01 -2.964044758681E-01
C50 -3.049332594136E-01  5.834398640141E-02 -2.035955241319E-01
C51 -3.049332594136E-01  4.416560135986E-01  2.964044758681E-01
C52  3.049332594136E-01 -5.834398640141E-02  2.035955241319E-01
H53  2.582117105224E-01 -4.105960924735E-01 -1.898719942105E-01
H54 -2.582117105224E-01  8.940390752650E-02 -3.101280057895E-01
H55 -2.582117105224E-01  4.105960924735E-01  1.898719942105E-01
H56  2.582117105224E-01 -8.940390752650E-02  3.101280057895E-01
C57  3.767174724079E-01 -4.230878508151E-01 -2.245051615857E-01
C58 -3.767174724079E-01  7.691214918492E-02 -2.754948384143E-01
C59 -3.767174724079E-01  4.230878508151E-01  2.245051615857E-01
C60  3.767174724079E-01 -7.691214918492E-02  2.754948384143E-01
H61  3.876708349962E-01 -3.740055963177E-01 -6.283329963100E-02
H62 -3.876708349962E-01  1.259944036823E-01 -4.371667003690E-01
H63 -3.876708349962E-01  3.740055963177E-01  6.283329963100E-02
H64  3.876708349962E-01 -1.259944036823E-01  4.371667003690E-01
C65  4.396279197407E-01 -4.603086071117E-01 -3.599370869610E-01
C66 -4.396279197407E-01  3.969139288834E-02 -1.400629130390E-01
C67 -4.396279197407E-01  4.603086071117E-01  3.599370869610E-01
C68  4.396279197407E-01 -3.969139288834E-02  1.400629130390E-01
C69  4.255446773743E-01  4.718170033409E-01  4.280853184841E-01
C70 -4.255446773743E-01 -2.818299665909E-02  7.191468151587E-02
C71 -4.255446773743E-01 -4.718170033409E-01 -4.280853184841E-01
C72  4.255446773743E-01  2.818299665909E-02 -7.191468151587E-02
C73  3.498526754568E-01  4.548733785149E-01  3.589093903905E-01
C74 -3.498526754568E-01 -4.512662148507E-02  1.410906096095E-01
C75 -3.498526754568E-01 -4.548733785149E-01 -3.589093903905E-01
C76  3.498526754568E-01  4.512662148507E-02 -1.410906096095E-01
H77  3.399129424666E-01  4.129602183930E-01  1.943910882707E-01
H78 -3.399129424666E-01 -8.703978160697E-02  3.056089117293E-01
H79 -3.399129424666E-01 -4.129602183930E-01 -1.943910882707E-01
H80  3.399129424666E-01  8.703978160697E-02 -3.056089117293E-01
C81 -4.864068913508E-01 -4.315081075890E-01 -2.935865457407E-01
C82  4.864068913508E-01  6.849189241097E-02 -2.064134542593E-01
C83  4.864068913508E-01  4.315081075890E-01  2.935865457407E-01
C84 -4.864068913508E-01 -6.849189241097E-02  2.064134542593E-01
H85 -4.756430672870E-01 -3.729478493991E-01 -1.356808453353E-01
H86  4.756430672870E-01  1.270521506009E-01 -3.643191546647E-01
H87  4.756430672870E-01  3.729478493991E-01  1.356808453353E-01
H88 -4.756430672870E-01 -1.270521506009E-01  3.643191546647E-01


#===END

data_OPT_STEP_14

_symmetry_space_group_name_H-M 'P 1'
_cell_length_a     17.71484109
_cell_length_b      6.90427171
_cell_length_c      6.23495448
_cell_angle_alpha   90.000000
_cell_angle_beta   89.649362
_cell_angle_gamma   90.000000

loop_
_atom_site_label
_atom_site_fract_x
_atom_site_fract_y
_atom_site_fract_z
C1  1.583317480415E-01 -3.724407733074E-01  4.909135473575E-01
C2 -1.583317480415E-01  1.275592266926E-01  9.086452642471E-03
C3 -1.583317480415E-01  3.724407733074E-01 -4.909135473575E-01
C4  1.583317480415E-01 -1.275592266926E-01 -9.086452642471E-03
H5  1.742214791878E-01 -2.673093876977E-01 -3.898443744004E-01
H6 -1.742214791878E-01  2.326906123023E-01 -1.101556255996E-01
H7 -1.742214791878E-01  2.673093876977E-01  3.898443744004E-01
H8  1.742214791878E-01 -2.326906123023E-01  1.101556255996E-01
C9  8.519271057433E-02 -3.732692652300E-01  4.145429626537E-01
C10 -8.519271057433E-02  1.267307347700E-01  8.545703734634E-02
C11 -8.519271057433E-02  3.732692652300E-01 -4.145429626537E-01
C12  8.519271057433E-02 -1.267307347700E-01 -8.545703734634E-02
H13  4.459576564537E-02 -2.711515472827E-01  4.786980290609E-01
H14 -4.459576564537E-02  2.288484527173E-01  2.130197093906E-02
H15 -4.459576564537E-02  2.711515472827E-01 -4.786980290609E-01
H16  4.459576564537E-02 -2.288484527173E-01 -2.130197093906E-02
C17  6.433612747085E-02 -4.991708980960E-01  2.521344689429E-01
C18 -6.433612747085E-02  8.291019039829E-04  2.478655310571E-01
C19 -6.433612747085E-02  4.991708980960E-01 -2.521344689429E-01
C20  6.433612747085E-02 -8.291019039831E-04 -2.478655310571E-01
H21  7.049622235989E-03 -4.980510382860E-01  1.927111696578E-01
H22 -7.049622235989E-03  1.948961714004E-03  3.072888303422E-01
H23 -7.049622235989E-03  4.980510382860E-01 -1.927111696578E-01
H24  7.049622235989E-03 -1.948961714004E-03 -3.072888303422E-01
C25  1.170581262228E-01  3.732792587411E-01  1.667403905881E-01
C26 -1.170581262228E-01 -1.267207412589E-01  3.332596094119E-01
C27 -1.170581262228E-01 -3.732792587411E-01 -1.667403905881E-01
C28  1.170581262228E-01  1.267207412589E-01 -3.332596094119E-01
H29  1.010846685029E-01  2.699347516441E-01  4.493868950443E-02
H30 -1.010846685029E-01 -2.300652483559E-01  4.550613104956E-01
H31 -1.010846685029E-01 -2.699347516441E-01 -4.493868950443E-02
H32  1.010846685029E-01  2.300652483559E-01 -4.550613104956E-01
C33  1.903486810665E-01  3.740697216105E-01  2.428833123519E-01
C34 -1.903486810665E-01 -1.259302783895E-01  2.571166876481E-01
C35 -1.903486810665E-01 -3.740697216105E-01 -2.428833123519E-01
C36  1.903486810665E-01  1.259302783895E-01 -2.571166876481E-01
H37  2.304061685522E-01  2.697429384751E-01  1.847182581606E-01
H38 -2.304061685522E-01 -2.302570615249E-01  3.152817418394E-01
H39 -2.304061685522E-01 -2.697429384751E-01 -1.847182581606E-01
H40  2.304061685522E-01  2.302570615249E-01 -3.152817418394E-01
C41  2.121054335394E-01  4.996104346788E-01  4.070853490436E-01
C42 -2.121054335394E-01 -3.895653211998E-04  9.291465095636E-02
C43 -2.121054335394E-01 -4.996104346788E-01 -4.070853490436E-01
C44  2.121054335394E-01  3.895653211997E-04 -9.291465095636E-02
C45  2.901370500305E-01 -4.993588511075E-01  4.882348947654E-01
C46 -2.901370500305E-01  6.411488925212E-04  1.176510523455E-02
C47 -2.901370500305E-01  4.993588511075E-01 -4.882348947654E-01
C48  2.901370500305E-01 -6.411488925215E-04 -1.176510523455E-02
C49  3.047495236690E-01 -4.412615746907E-01 -2.965047173718E-01
C50 -3.047495236690E-01  5.873842530931E-02 -2.034952826282E-01
C51 -3.047495236690E-01  4.412615746907E-01  2.965047173718E-01
C52  3.047495236690E-01 -5.873842530931E-02  2.034952826282E-01
H53  2.578706775383E-01 -4.131499599756E-01 -1.885787995040E-01
H54 -2.578706775383E-01  8.685004002443E-02 -3.114212004960E-01
H55 -2.578706775383E-01  4.131499599756E-01  1.885787995040E-01
H56  2.578706775383E-01 -8.685004002443E-02  3.114212004960E-01
C57  3.764860556639E-01 -4.227200583126E-01 -2.238820072085E-01
C58 -3.764860556639E-01  7.727994168739E-02 -2.761179927915E-01
C59 -3.764860556639E-01  4.227200583126E-01  2.238820072085E-01
C60  3.764860556639E-01 -7.727994168739E-02  2.761179927915E-01
H61  3.871816035826E-01 -3.740535037884E-01 -6.153374622042E-02
H62 -3.871816035826E-01  1.259464962116E-01 -4.384662537796E-01
H63 -3.871816035826E-01  3.740535037884E-01  6.153374622042E-02
H64  3.871816035826E-01 -1.259464962116E-01  4.384662537796E-01
C65  4.395192323713E-01 -4.617209569956E-01 -3.588833453740E-01
C66 -4.395192323713E-01  3.827904300436E-02 -1.411166546260E-01
C67 -4.395192323713E-01  4.617209569956E-01  3.588833453740E-01
C68  4.395192323713E-01 -3.827904300436E-02  1.411166546260E-01
C69  4.255601247984E-01  4.701694072382E-01  4.281765328695E-01
C70 -4.255601247984E-01 -2.983059276179E-02  7.182346713053E-02
C71 -4.255601247984E-01 -4.701694072382E-01 -4.281765328695E-01
C72  4.255601247984E-01  2.983059276179E-02 -7.182346713053E-02
C73  3.498593464414E-01  4.528745199420E-01  3.585153636018E-01
C74 -3.498593464414E-01 -4.712548005797E-02  1.414846363982E-01
C75 -3.498593464414E-01 -4.528745199420E-01 -3.585153636018E-01
C76  3.498593464414E-01  4.712548005797E-02 -1.414846363982E-01
H77  3.401413149404E-01  4.107321404969E-01  1.936371482924E-01
H78 -3.401413149404E-01 -8.926785950305E-02  3.063628517076E-01
H79 -3.401413149404E-01 -4.107321404969E-01 -1.936371482924E-01
H80  3.401413149404E-01  8.926785950305E-02 -3.063628517076E-01
C81 -4.865397854350E-01 -4.330272193991E-01 -2.918656815550E-01
C82  4.865397854350E-01  6.697278060087E-02 -2.081343184451E-01
C83  4.865397854350E-01  4.330272193991E-01  2.918656815549E-01
C84 -4.865397854350E-01 -6.697278060087E-02  2.081343184450E-01
H85 -4.759027216480E-01 -3.793499714424E-01 -1.311407534861E-01
H86  4.759027216480E-01  1.206500285576E-01 -3.688592465139E-01
H87  4.759027216480E-01  3.793499714424E-01  1.311407534861E-01
H88 -4.759027216480E-01 -1.206500285576E-01  3.688592465139E-01


#===END

data_OPT_STEP_15

_symmetry_space_group_name_H-M 'P 1'
_cell_length_a     17.69491910
_cell_length_b      6.95475572
_cell_length_c      6.21781843
_cell_angle_alpha   90.000000
_cell_angle_beta   89.636536
_cell_angle_gamma   90.000000

loop_
_atom_site_label
_atom_site_fract_x
_atom_site_fract_y
_atom_site_fract_z
C1  1.578443185058E-01 -3.748527602587E-01  4.929635665594E-01
C2 -1.578443185058E-01  1.251472397413E-01  7.036433440582E-03
C3 -1.578443185058E-01  3.748527602587E-01 -4.929635665594E-01
C4  1.578443185058E-01 -1.251472397413E-01 -7.036433440582E-03
H5  1.738330313219E-01 -2.703969129486E-01 -3.865965867178E-01
H6 -1.738330313219E-01  2.296030870514E-01 -1.134034132822E-01
H7 -1.738330313219E-01  2.703969129486E-01  3.865965867178E-01
H8  1.738330313219E-01 -2.296030870514E-01  1.134034132822E-01
C9  8.450105907614E-02 -3.756977785890E-01  4.169510587973E-01
C10 -8.450105907614E-02  1.243022214110E-01  8.304894120270E-02
C11 -8.450105907614E-02  3.756977785890E-01 -4.169510587973E-01
C12  8.450105907614E-02 -1.243022214110E-01 -8.304894120270E-02
H13  4.407187531211E-02 -2.729693046666E-01  4.807615343140E-01
H14 -4.407187531211E-02  2.270306953334E-01  1.923846568598E-02
H15 -4.407187531211E-02  2.729693046666E-01 -4.807615343140E-01
H16  4.407187531211E-02 -2.270306953334E-01 -1.923846568598E-02
C17  6.343872695154E-02  4.977834362418E-01  2.554048759877E-01
C18 -6.343872695154E-02 -2.216563758239E-03  2.445951240123E-01
C19 -6.343872695154E-02 -4.977834362418E-01 -2.554048759877E-01
C20  6.343872695154E-02  2.216563758238E-03 -2.445951240123E-01
H21  6.139718596929E-03  4.990880456313E-01  1.951828676080E-01
H22 -6.139718596929E-03 -9.119543687494E-04  3.048171323920E-01
H23 -6.139718596929E-03 -4.990880456313E-01 -1.951828676080E-01
H24  6.139718596929E-03  9.119543687492E-04 -3.048171323920E-01
C25  1.163647206935E-01  3.719151509088E-01  1.688883286413E-01
C26 -1.163647206935E-01 -1.280848490912E-01  3.311116713587E-01
C27 -1.163647206935E-01 -3.719151509088E-01 -1.688883286413E-01
C28  1.163647206935E-01  1.280848490912E-01 -3.311116713587E-01
H29  1.004540715496E-01  2.700075475955E-01  4.551858077740E-02
H30 -1.004540715496E-01 -2.299924524045E-01  4.544814192226E-01
H31 -1.004540715496E-01 -2.700075475955E-01 -4.551858077740E-02
H32  1.004540715496E-01  2.299924524045E-01 -4.544814192226E-01
C33  1.899742812276E-01  3.743448801666E-01  2.433569014374E-01
C34 -1.899742812276E-01 -1.256551198334E-01  2.566430985626E-01
C35 -1.899742812276E-01 -3.743448801666E-01 -2.433569014374E-01
C36  1.899742812276E-01  1.256551198334E-01 -2.566430985626E-01
H37  2.303528194864E-01  2.721465922207E-01  1.822212793454E-01
H38 -2.303528194864E-01 -2.278534077793E-01  3.177787206546E-01
H39 -2.303528194864E-01 -2.721465922207E-01 -1.822212793454E-01
H40  2.303528194864E-01  2.278534077793E-01 -3.177787206546E-01
C41  2.118841099461E-01 -4.998290840418E-01  4.066772772301E-01
C42 -2.118841099461E-01  1.709159581661E-04  9.332272276994E-02
C43 -2.118841099461E-01  4.998290840418E-01 -4.066772772301E-01
C44  2.118841099461E-01 -1.709159581663E-04 -9.332272276994E-02
C45  2.899561675021E-01 -4.986685416668E-01  4.875536126098E-01
C46 -2.899561675021E-01  1.331458333151E-03  1.244638739019E-02
C47 -2.899561675021E-01  4.986685416668E-01 -4.875536126098E-01
C48  2.899561675021E-01 -1.331458333151E-03 -1.244638739019E-02
C49  3.045381322541E-01 -4.393872615358E-01 -2.970737218489E-01
C50 -3.045381322541E-01  6.061273846422E-02 -2.029262781511E-01
C51 -3.045381322541E-01  4.393872615358E-01  2.970737218489E-01
C52  3.045381322541E-01 -6.061273846422E-02  2.029262781511E-01
H53  2.574535590757E-01 -4.105235650104E-01 -1.894208145829E-01
H54 -2.574535590757E-01  8.947643498955E-02 -3.105791854171E-01
H55 -2.574535590757E-01  4.105235650104E-01  1.894208145829E-01
H56  2.574535590757E-01 -8.947643498955E-02  3.105791854171E-01
C57  3.763084667249E-01 -4.215024915802E-01 -2.236526777067E-01
C58 -3.763084667249E-01  7.849750841975E-02 -2.763473222933E-01
C59 -3.763084667249E-01  4.215024915802E-01  2.236526777067E-01
C60  3.763084667249E-01 -7.849750841975E-02  2.763473222933E-01
H61  3.867625505496E-01 -3.738615879972E-01 -6.048540151261E-02
H62 -3.867625505496E-01  1.261384120028E-01 -4.395145984874E-01
H63 -3.867625505496E-01  3.738615879972E-01  6.048540151261E-02
H64  3.867625505496E-01 -1.261384120028E-01  4.395145984874E-01
C65  4.394393630509E-01 -4.596829187818E-01 -3.594449226030E-01
C66 -4.394393630509E-01  4.031708121824E-02 -1.405550773970E-01
C67 -4.394393630509E-01  4.596829187818E-01  3.594449226030E-01
C68  4.394393630509E-01 -4.031708121824E-02  1.405550773970E-01
C69  4.255180543027E-01  4.706547779071E-01  4.276664617386E-01
C70 -4.255180543027E-01 -2.934522209294E-02  7.233353826138E-02
C71 -4.255180543027E-01 -4.706547779071E-01 -4.276664617386E-01
C72  4.255180543027E-01  2.934522209294E-02 -7.233353826138E-02
C73  3.497431211881E-01  4.521622586088E-01  3.579737795501E-01
C74 -3.497431211881E-01 -4.783774139119E-02  1.420262204499E-01
C75 -3.497431211881E-01 -4.521622586088E-01 -3.579737795501E-01
C76  3.497431211881E-01  4.783774139119E-02 -1.420262204499E-01
H77  3.402406244953E-01  4.100638530922E-01  1.926371806773E-01
H78 -3.402406244953E-01 -8.993614690778E-02  3.073628193227E-01
H79 -3.402406244953E-01 -4.100638530922E-01 -1.926371806773E-01
H80  3.402406244953E-01  8.993614690778E-02 -3.073628193227E-01
C81 -4.866100664324E-01 -4.297042899851E-01 -2.928259666552E-01
C82  4.866100664324E-01  7.029571001489E-02 -2.071740333448E-01
C83  4.866100664324E-01  4.297042899851E-01  2.928259666552E-01
C84 -4.866100664324E-01 -7.029571001489E-02  2.071740333448E-01
H85 -4.761187915678E-01 -3.760057878606E-01 -1.317684228151E-01
H86  4.761187915678E-01  1.239942121394E-01 -3.682315771849E-01
H87  4.761187915678E-01  3.760057878606E-01  1.317684228151E-01
H88 -4.761187915678E-01 -1.239942121394E-01  3.682315771849E-01


#===END

data_OPT_STEP_16

_symmetry_space_group_name_H-M 'P 1'
_cell_length_a     17.66221065
_cell_length_b      6.99350078
_cell_length_c      6.20831691
_cell_angle_alpha   90.000000
_cell_angle_beta   89.542459
_cell_angle_gamma   90.000000

loop_
_atom_site_label
_atom_site_fract_x
_atom_site_fract_y
_atom_site_fract_z
C1  1.569837148922E-01 -3.761801648422E-01  4.934276003691E-01
C2 -1.569837148922E-01  1.238198351578E-01  6.572399630865E-03
C3 -1.569837148922E-01  3.761801648422E-01 -4.934276003691E-01
C4  1.569837148922E-01 -1.238198351578E-01 -6.572399630865E-03
H5  1.727086339554E-01 -2.726728330402E-01 -3.844286005237E-01
H6 -1.727086339554E-01  2.273271669598E-01 -1.155713994763E-01
H7 -1.727086339554E-01  2.726728330402E-01  3.844286005237E-01
H8  1.727086339554E-01 -2.273271669598E-01  1.155713994763E-01
C9  8.346936670428E-02 -3.775817014506E-01  4.173693478049E-01
C10 -8.346936670428E-02  1.224182985494E-01  8.263065219509E-02
C11 -8.346936670428E-02  3.775817014506E-01 -4.173693478049E-01
C12  8.346936670428E-02 -1.224182985494E-01 -8.263065219509E-02
H13  4.285519258190E-02 -2.760439645627E-01  4.816664879954E-01
H14 -4.285519258190E-02  2.239560354373E-01  1.833351200464E-02
H15 -4.285519258190E-02  2.760439645627E-01 -4.816664879954E-01
H16  4.285519258190E-02 -2.239560354373E-01 -1.833351200464E-02
C17  6.268078188970E-02  4.965710487421E-01  2.556381845363E-01
C18 -6.268078188970E-02 -3.428951257945E-03  2.443618154637E-01
C19 -6.268078188970E-02 -4.965710487421E-01 -2.556381845363E-01
C20  6.268078188970E-02  3.428951257944E-03 -2.443618154637E-01
H21  5.241289883526E-03  4.966983434597E-01  1.960019394352E-01
H22 -5.241289883526E-03 -3.301656540342E-03  3.039980605648E-01
H23 -5.241289883526E-03 -4.966983434597E-01 -1.960019394352E-01
H24  5.241289883526E-03  3.301656540342E-03 -3.039980605648E-01
C25  1.162600777256E-01  3.733842037946E-01  1.679598665014E-01
C26 -1.162600777256E-01 -1.266157962054E-01  3.320401334986E-01
C27 -1.162600777256E-01 -3.733842037946E-01 -1.679598665014E-01
C28  1.162600777256E-01  1.266157962054E-01 -3.320401334986E-01
H29  1.005493121976E-01  2.714019828004E-01  4.420106424780E-02
H30 -1.005493121976E-01 -2.285980171996E-01  4.557989357522E-01
H31 -1.005493121976E-01 -2.714019828004E-01 -4.420106424780E-02
H32  1.005493121976E-01  2.285980171996E-01 -4.557989357522E-01
C33  1.898291431474E-01  3.747685025348E-01  2.440532735527E-01
C34 -1.898291431474E-01 -1.252314974652E-01  2.559467264473E-01
C35 -1.898291431474E-01 -3.747685025348E-01 -2.440532735527E-01
C36  1.898291431474E-01  1.252314974652E-01 -2.559467264473E-01
H37  2.307216960972E-01  2.744691301000E-01  1.800023575530E-01
H38 -2.307216960972E-01 -2.255308699000E-01  3.199976424470E-01
H39 -2.307216960972E-01 -2.744691301000E-01 -1.800023575530E-01
H40  2.307216960972E-01  2.255308699000E-01 -3.199976424470E-01
C41  2.113268872723E-01  4.992219202163E-01  4.080382558985E-01
C42 -2.113268872723E-01 -7.780797837451E-04  9.196174410149E-02
C43 -2.113268872723E-01 -4.992219202163E-01 -4.080382558985E-01
C44  2.113268872723E-01  7.780797837450E-04 -9.196174410149E-02
C45  2.896159422857E-01 -4.967617714013E-01  4.868869234925E-01
C46 -2.896159422857E-01  3.238228598701E-03  1.311307650753E-02
C47 -2.896159422857E-01  4.967617714013E-01 -4.868869234925E-01
C48  2.896159422857E-01 -3.238228598701E-03 -1.311307650753E-02
C49  3.041765937695E-01 -4.370624240656E-01 -2.974618631902E-01
C50 -3.041765937695E-01  6.293757593436E-02 -2.025381368098E-01
C51 -3.041765937695E-01  4.370624240656E-01  2.974618631902E-01
C52  3.041765937695E-01 -6.293757593436E-02  2.025381368098E-01
H53  2.568351785598E-01 -4.076848758372E-01 -1.900877889202E-01
H54 -2.568351785598E-01  9.231512416283E-02 -3.099122110798E-01
H55 -2.568351785598E-01  4.076848758372E-01  1.900877889202E-01
H56  2.568351785598E-01 -9.231512416283E-02  3.099122110798E-01
C57  3.760202758935E-01 -4.176882437082E-01 -2.242466990048E-01
C58 -3.760202758935E-01  8.231175629176E-02 -2.757533009952E-01
C59 -3.760202758935E-01  4.176882437082E-01  2.242466990048E-01
C60  3.760202758935E-01 -8.231175629176E-02  2.757533009952E-01
H61  3.860702490533E-01 -3.705114746898E-01 -6.066858949193E-02
H62 -3.860702490533E-01  1.294885253102E-01 -4.393314105081E-01
H63 -3.860702490533E-01  3.705114746898E-01  6.066858949193E-02
H64  3.860702490533E-01 -1.294885253102E-01  4.393314105081E-01
C65  4.393097525449E-01 -4.585543376799E-01 -3.594366590805E-01
C66 -4.393097525449E-01  4.144566232014E-02 -1.405633409195E-01
C67 -4.393097525449E-01  4.585543376799E-01  3.594366590805E-01
C68  4.393097525449E-01 -4.144566232014E-02  1.405633409195E-01
C69  4.254097872118E-01  4.726094473625E-01  4.266648205017E-01
C70 -4.254097872118E-01 -2.739055263749E-02  7.333517949833E-02
C71 -4.254097872118E-01 -4.726094473625E-01 -4.266648205017E-01
C72  4.254097872118E-01  2.739055263749E-02 -7.333517949833E-02
C73  3.495346716187E-01  4.545914798589E-01  3.562824537579E-01
C74 -3.495346716187E-01 -4.540852014108E-02  1.437175462421E-01
C75 -3.495346716187E-01 -4.545914798589E-01 -3.562824537579E-01
C76  3.495346716187E-01  4.540852014108E-02 -1.437175462421E-01
H77  3.403122957777E-01  4.117011862116E-01  1.909558664239E-01
H78 -3.403122957777E-01 -8.829881378837E-02  3.090441335761E-01
H79 -3.403122957777E-01 -4.117011862116E-01 -1.909558664239E-01
H80  3.403122957777E-01  8.829881378836E-02 -3.090441335761E-01
C81 -4.866632829760E-01 -4.319911935870E-01 -2.912180683455E-01
C82  4.866632829760E-01  6.800880641300E-02 -2.087819316545E-01
C83  4.866632829760E-01  4.319911935870E-01  2.912180683455E-01
C84 -4.866632829760E-01 -6.800880641300E-02  2.087819316545E-01
H85 -4.764144076925E-01 -3.799715698137E-01 -1.292138814374E-01
H86  4.764144076925E-01  1.200284301863E-01 -3.707861185626E-01
H87  4.764144076925E-01  3.799715698137E-01  1.292138814374E-01
H88 -4.764144076925E-01 -1.200284301863E-01  3.707861185626E-01


#===END

data_OPT_STEP_17

_symmetry_space_group_name_H-M 'P 1'
_cell_length_a     17.64774381
_cell_length_b      6.99038193
_cell_length_c      6.19911490
_cell_angle_alpha   90.000000
_cell_angle_beta   89.378605
_cell_angle_gamma   90.000000

loop_
_atom_site_label
_atom_site_fract_x
_atom_site_fract_y
_atom_site_fract_z
C1  1.568360149297E-01 -3.749387343112E-01  4.896800448107E-01
C2 -1.568360149297E-01  1.250612656888E-01  1.031995518926E-02
C3 -1.568360149297E-01  3.749387343112E-01 -4.896800448107E-01
C4  1.568360149297E-01 -1.250612656888E-01 -1.031995518926E-02
H5  1.722846949426E-01 -2.722783623378E-01 -3.867751506746E-01
H6 -1.722846949426E-01  2.277216376622E-01 -1.132248493254E-01
H7 -1.722846949426E-01  2.722783623378E-01  3.867751506746E-01
H8  1.722846949426E-01 -2.277216376622E-01  1.132248493254E-01
C9  8.308352236534E-02 -3.783932970371E-01  4.155929186838E-01
C10 -8.308352236534E-02  1.216067029629E-01  8.440708131619E-02
C11 -8.308352236534E-02  3.783932970371E-01 -4.155929186838E-01
C12  8.308352236534E-02 -1.216067029629E-01 -8.440708131619E-02
H13  4.223054796754E-02 -2.787227463224E-01  4.815214186293E-01
H14 -4.223054796754E-02  2.212772536776E-01  1.847858137068E-02
H15 -4.223054796754E-02  2.787227463224E-01 -4.815214186293E-01
H16  4.223054796754E-02 -2.212772536776E-01 -1.847858137068E-02
C17  6.249886410043E-02  4.967712728601E-01  2.528837396467E-01
C18 -6.249886410043E-02 -3.228727139933E-03  2.471162603533E-01
C19 -6.249886410043E-02 -4.967712728601E-01 -2.528837396467E-01
C20  6.249886410043E-02  3.228727139933E-03 -2.471162603533E-01
H21  4.896623332489E-03  4.957572199001E-01  1.949168610964E-01
H22 -4.896623332489E-03 -4.242780099908E-03  3.050831389036E-01
H23 -4.896623332489E-03 -4.957572199001E-01 -1.949168610964E-01
H24  4.896623332489E-03  4.242780099908E-03 -3.050831389036E-01
C25  1.164220246514E-01  3.748251451800E-01  1.638752521414E-01
C26 -1.164220246514E-01 -1.251748548200E-01  3.361247478586E-01
C27 -1.164220246514E-01 -3.748251451800E-01 -1.638752521414E-01
C28  1.164220246514E-01  1.251748548200E-01 -3.361247478586E-01
H29  1.009850988630E-01  2.740436422866E-01  3.864858583835E-02
H30 -1.009850988630E-01 -2.259563577134E-01  4.613514141616E-01
H31 -1.009850988630E-01 -2.740436422866E-01 -3.864858583835E-02
H32  1.009850988630E-01  2.259563577134E-01 -4.613514141616E-01
C33  1.900777107721E-01  3.765996050798E-01  2.395037947637E-01
C34 -1.900777107721E-01 -1.234003949202E-01  2.604962052363E-01
C35 -1.900777107721E-01 -3.765996050798E-01 -2.395037947637E-01
C36  1.900777107721E-01  1.234003949202E-01 -2.604962052363E-01
H37  2.312013367231E-01  2.770914500895E-01  1.733010298777E-01
H38 -2.312013367231E-01 -2.229085499105E-01  3.266989701223E-01
H39 -2.312013367231E-01 -2.770914500895E-01 -1.733010298777E-01
H40  2.312013367231E-01  2.229085499105E-01 -3.266989701223E-01
C41  2.114509179057E-01 -4.988546505433E-01  4.036029069878E-01
C42 -2.114509179057E-01  1.145349456670E-03  9.639709301223E-02
C43 -2.114509179057E-01  4.988546505433E-01 -4.036029069878E-01
C44  2.114509179057E-01 -1.145349456670E-03 -9.639709301223E-02
C45  2.895289227323E-01 -4.963977503036E-01  4.840560504411E-01
C46 -2.895289227323E-01  3.602249696372E-03  1.594394955892E-02
C47 -2.895289227323E-01  4.963977503036E-01 -4.840560504411E-01
C48  2.895289227323E-01 -3.602249696373E-03 -1.594394955892E-02
C49  3.036017065461E-01 -4.354754256435E-01 -3.001546433295E-01
C50 -3.036017065461E-01  6.452457435645E-02 -1.998453566705E-01
C51 -3.036017065461E-01  4.354754256435E-01  3.001546433295E-01
C52  3.036017065461E-01 -6.452457435645E-02  1.998453566705E-01
H53  2.559495527715E-01 -4.046046843349E-01 -1.939355397062E-01
H54 -2.559495527715E-01  9.539531566510E-02 -3.060644602938E-01
H55 -2.559495527715E-01  4.046046843349E-01  1.939355397062E-01
H56  2.559495527715E-01 -9.539531566510E-02  3.060644602938E-01
C57  3.753095756662E-01 -4.160881431567E-01 -2.257143764695E-01
C58 -3.753095756662E-01  8.391185684326E-02 -2.742856235305E-01
C59 -3.753095756662E-01  4.160881431567E-01  2.257143764695E-01
C60  3.753095756662E-01 -8.391185684326E-02  2.742856235305E-01
H61  3.848145524725E-01 -3.687733625735E-01 -6.190202452026E-02
H62 -3.848145524725E-01  1.312266374265E-01 -4.380979754797E-01
H63 -3.848145524725E-01  3.687733625735E-01  6.190202452026E-02
H64  3.848145524725E-01 -1.312266374265E-01  4.380979754797E-01
C65  4.389507622034E-01 -4.573929966102E-01 -3.603277960918E-01
C66 -4.389507622034E-01  4.260700338978E-02 -1.396722039082E-01
C67 -4.389507622034E-01  4.573929966102E-01  3.603277960918E-01
C68  4.389507622034E-01 -4.260700338978E-02  1.396722039082E-01
C69  4.255152497967E-01  4.710842656951E-01  4.264155837162E-01
C70 -4.255152497967E-01 -2.891573430490E-02  7.358441628375E-02
C71 -4.255152497967E-01 -4.710842656951E-01 -4.264155837162E-01
C72  4.255152497967E-01  2.891573430490E-02 -7.358441628375E-02
C73  3.497662068691E-01  4.532606003579E-01  3.546174682936E-01
C74 -3.497662068691E-01 -4.673939964214E-02  1.453825317064E-01
C75 -3.497662068691E-01 -4.532606003579E-01 -3.546174682936E-01
C76  3.497662068691E-01  4.673939964214E-02 -1.453825317064E-01
H77  3.410065764799E-01  4.091706716527E-01  1.893811366873E-01
H78 -3.410065764799E-01 -9.082932834732E-02  3.106188633127E-01
H79 -3.410065764799E-01 -4.091706716527E-01 -1.893811366873E-01
H80  3.410065764799E-01  9.082932834732E-02 -3.106188633127E-01
C81 -4.871405403126E-01 -4.296732163090E-01 -2.916930295809E-01
C82  4.871405403126E-01  7.032678369098E-02 -2.083069704191E-01
C83  4.871405403126E-01  4.296732163090E-01  2.916930295809E-01
C84 -4.871405403126E-01 -7.032678369098E-02  2.083069704191E-01
H85 -4.773743460086E-01 -3.745762040452E-01 -1.308534278385E-01
H86  4.773743460086E-01  1.254237959548E-01 -3.691465721615E-01
H87  4.773743460086E-01  3.745762040452E-01  1.308534278385E-01
H88 -4.773743460086E-01 -1.254237959548E-01  3.691465721615E-01


#===END

data_OPT_STEP_18

_symmetry_space_group_name_H-M 'P 1'
_cell_length_a     17.63048786
_cell_length_b      6.99552762
_cell_length_c      6.19779044
_cell_angle_alpha   90.000000
_cell_angle_beta   89.265591
_cell_angle_gamma   90.000000

loop_
_atom_site_label
_atom_site_fract_x
_atom_site_fract_y
_atom_site_fract_z
C1  1.560346023036E-01 -3.777591491349E-01  4.891118385712E-01
C2 -1.560346023036E-01  1.222408508651E-01  1.088816142881E-02
C3 -1.560346023036E-01  3.777591491349E-01 -4.891118385712E-01
C4  1.560346023036E-01 -1.222408508651E-01 -1.088816142881E-02
H5  1.710076360313E-01 -2.772146509846E-01 -3.849063556621E-01
H6 -1.710076360313E-01  2.227853490154E-01 -1.150936443379E-01
H7 -1.710076360313E-01  2.772146509846E-01  3.849063556621E-01
H8  1.710076360313E-01 -2.227853490154E-01  1.150936443379E-01
C9  8.244734687235E-02 -3.798428506565E-01  4.137198038006E-01
C10 -8.244734687235E-02  1.201571493435E-01  8.628019619938E-02
C11 -8.244734687235E-02  3.798428506565E-01 -4.137198038006E-01
C12  8.244734687235E-02 -1.201571493435E-01 -8.628019619938E-02
H13  4.129082552599E-02 -2.824322836937E-01  4.815952127402E-01
H14 -4.129082552599E-02  2.175677163063E-01  1.840478725985E-02
H15 -4.129082552599E-02  2.824322836937E-01 -4.815952127402E-01
H16  4.129082552599E-02 -2.175677163063E-01 -1.840478725985E-02
C17  6.215120499302E-02  4.972881099278E-01  2.491257790588E-01
C18 -6.215120499302E-02 -2.711890072181E-03  2.508742209412E-01
C19 -6.215120499302E-02 -4.972881099278E-01 -2.491257790588E-01
C20  6.215120499302E-02  2.711890072181E-03 -2.508742209412E-01
H21  4.325151494746E-03  4.948014647752E-01  1.930525226262E-01
H22 -4.325151494746E-03 -5.198535224776E-03  3.069474773738E-01
H23 -4.325151494746E-03 -4.948014647752E-01 -1.930525226262E-01
H24  4.325151494746E-03  5.198535224776E-03 -3.069474773738E-01
C25  1.163555660854E-01  3.761743376449E-01  1.592080158183E-01
C26 -1.163555660854E-01 -1.238256623551E-01  3.407919841817E-01
C27 -1.163555660854E-01 -3.761743376449E-01 -1.592080158183E-01
C28  1.163555660854E-01  1.238256623551E-01 -3.407919841817E-01
H29  1.012127224866E-01  2.766796745337E-01  3.253489519090E-02
H30 -1.012127224866E-01 -2.233203254663E-01  4.674651048091E-01
H31 -1.012127224866E-01 -2.766796745337E-01 -3.253489519090E-02
H32  1.012127224866E-01  2.233203254663E-01 -4.674651048091E-01
C33  1.901546393513E-01  3.789669983376E-01  2.338972018512E-01
C34 -1.901546393513E-01 -1.210330016624E-01  2.661027981488E-01
C35 -1.901546393513E-01 -3.789669983376E-01 -2.338972018512E-01
C36  1.901546393513E-01  1.210330016624E-01 -2.661027981488E-01
H37  2.315222728953E-01  2.807122504531E-01  1.651500144202E-01
H38 -2.315222728953E-01 -2.192877495469E-01  3.348499855798E-01
H39 -2.315222728953E-01 -2.807122504531E-01 -1.651500144202E-01
H40  2.315222728953E-01  2.192877495469E-01 -3.348499855798E-01
C41  2.112834158457E-01 -4.980176376685E-01  3.997686519051E-01
C42 -2.112834158457E-01  1.982362331545E-03  1.002313480949E-01
C43 -2.112834158457E-01  4.980176376685E-01 -3.997686519051E-01
C44  2.112834158457E-01 -1.982362331545E-03 -1.002313480949E-01
C45  2.893558638620E-01 -4.956877653570E-01  4.810329807460E-01
C46 -2.893558638620E-01  4.312234642981E-03  1.896701925405E-02
C47 -2.893558638620E-01  4.956877653570E-01 -4.810329807460E-01
C48  2.893558638620E-01 -4.312234642982E-03 -1.896701925405E-02
C49  3.030209371538E-01 -4.355429933446E-01 -3.026571310539E-01
C50 -3.030209371538E-01  6.445700665540E-02 -1.973428689461E-01
C51 -3.030209371538E-01  4.355429933446E-01  3.026571310539E-01
C52  3.030209371538E-01 -6.445700665540E-02  1.973428689461E-01
H53  2.550790363030E-01 -4.060259993046E-01 -1.964879910852E-01
H54 -2.550790363030E-01  9.397400069544E-02 -3.035120089148E-01
H55 -2.550790363030E-01  4.060259993046E-01  1.964879910852E-01
H56  2.550790363030E-01 -9.397400069544E-02  3.035120089148E-01
C57  3.746235411166E-01 -4.170599542586E-01 -2.267976851630E-01
C58 -3.746235411166E-01  8.294004574139E-02 -2.732023148370E-01
C59 -3.746235411166E-01  4.170599542586E-01  2.267976851630E-01
C60  3.746235411166E-01 -8.294004574139E-02  2.732023148370E-01
H61  3.836384830063E-01 -3.687726176836E-01 -6.323364971774E-02
H62 -3.836384830063E-01  1.312273823164E-01 -4.367663502823E-01
H63 -3.836384830063E-01  3.687726176836E-01  6.323364971774E-02
H64  3.836384830063E-01 -1.312273823164E-01  4.367663502823E-01
C65  4.386018662324E-01 -4.581553079401E-01 -3.607198022208E-01
C66 -4.386018662324E-01  4.184469205990E-02 -1.392801977792E-01
C67 -4.386018662324E-01  4.581553079401E-01  3.607198022208E-01
C68  4.386018662324E-01 -4.184469205990E-02  1.392801977792E-01
C69  4.255617509976E-01  4.709569744593E-01  4.256135793662E-01
C70 -4.255617509976E-01 -2.904302554070E-02  7.438642063383E-02
C71 -4.255617509976E-01 -4.709569744593E-01 -4.256135793662E-01
C72  4.255617509976E-01  2.904302554070E-02 -7.438642063383E-02
C73  3.499114657369E-01  4.534520497403E-01  3.525944638297E-01
C74 -3.499114657369E-01 -4.654795025972E-02  1.474055361703E-01
C75 -3.499114657369E-01 -4.534520497403E-01 -3.525944638297E-01
C76  3.499114657369E-01  4.654795025972E-02 -1.474055361703E-01
H77  3.415638072045E-01  4.073340804495E-01  1.879395148945E-01
H78 -3.415638072045E-01 -9.266591955050E-02  3.120604851055E-01
H79 -3.415638072045E-01 -4.073340804495E-01 -1.879395148945E-01
H80  3.415638072045E-01  9.266591955050E-02 -3.120604851055E-01
C81 -4.875438967926E-01 -4.301188851345E-01 -2.912899594237E-01
C82  4.875438967926E-01  6.988111486547E-02 -2.087100405763E-01
C83  4.875438967926E-01  4.301188851345E-01  2.912899594237E-01
C84 -4.875438967926E-01 -6.988111486547E-02  2.087100405763E-01
H85 -4.781954147526E-01 -3.756358209295E-01 -1.299884637354E-01
H86  4.781954147526E-01  1.243641790705E-01 -3.700115362646E-01
H87  4.781954147526E-01  3.756358209295E-01  1.299884637354E-01
H88 -4.781954147526E-01 -1.243641790705E-01  3.700115362646E-01


#===END

data_OPT_STEP_19

_symmetry_space_group_name_H-M 'P 1'
_cell_length_a     17.61578419
_cell_length_b      6.99689187
_cell_length_c      6.18215686
_cell_angle_alpha   90.000000
_cell_angle_beta   89.199603
_cell_angle_gamma   90.000000

loop_
_atom_site_label
_atom_site_fract_x
_atom_site_fract_y
_atom_site_fract_z
C1  1.556155664595E-01 -3.790060365255E-01  4.873968823997E-01
C2 -1.556155664595E-01  1.209939634745E-01  1.260311760028E-02
C3 -1.556155664595E-01  3.790060365255E-01 -4.873968823997E-01
C4  1.556155664595E-01 -1.209939634745E-01 -1.260311760028E-02
H5  1.704267774649E-01 -2.785788410820E-01 -3.859410566510E-01
H6 -1.704267774649E-01  2.214211589180E-01 -1.140589433490E-01
H7 -1.704267774649E-01  2.785788410820E-01  3.859410566510E-01
H8  1.704267774649E-01 -2.214211589180E-01  1.140589433490E-01
C9  8.197137299198E-02 -3.812658279077E-01  4.123780838647E-01
C10 -8.197137299198E-02  1.187341720923E-01  8.762191613530E-02
C11 -8.197137299198E-02  3.812658279077E-01 -4.123780838647E-01
C12  8.197137299198E-02 -1.187341720923E-01 -8.762191613530E-02
H13  4.057849398203E-02 -2.857622672652E-01  4.824870036196E-01
H14 -4.057849398203E-02  2.142377327348E-01  1.751299638039E-02
H15 -4.057849398203E-02  2.857622672652E-01 -4.824870036196E-01
H16  4.057849398203E-02 -2.142377327348E-01 -1.751299638039E-02
C17  6.171722900674E-02  4.967927538552E-01  2.463455647530E-01
C18 -6.171722900674E-02 -3.207246144756E-03  2.536544352470E-01
C19 -6.171722900674E-02 -4.967927538552E-01 -2.463455647530E-01
C20  6.171722900674E-02  3.207246144755E-03 -2.536544352470E-01
H21  3.663787713678E-03  4.933214680260E-01  1.917514138226E-01
H22 -3.663787713678E-03 -6.678531973967E-03  3.082485861774E-01
H23 -3.663787713678E-03 -4.933214680260E-01 -1.917514138226E-01
H24  3.663787713678E-03  6.678531973967E-03 -3.082485861774E-01
C25  1.162545797889E-01  3.780154302158E-01  1.535163641185E-01
C26 -1.162545797889E-01 -1.219845697842E-01  3.464836358815E-01
C27 -1.162545797889E-01 -3.780154302158E-01 -1.535163641185E-01
C28  1.162545797889E-01  1.219845697842E-01 -3.464836358815E-01
H29  1.013789272001E-01  2.804278887462E-01  2.458289956246E-02
H30 -1.013789272001E-01 -2.195721112538E-01  4.754171004375E-01
H31 -1.013789272001E-01 -2.804278887462E-01 -2.458289956246E-02
H32  1.013789272001E-01  2.195721112538E-01 -4.754171004375E-01
C33  1.901700369348E-01  3.812260125296E-01  2.276494654644E-01
C34 -1.901700369348E-01 -1.187739874704E-01  2.723505345356E-01
C35 -1.901700369348E-01 -3.812260125296E-01 -2.276494654644E-01
C36  1.901700369348E-01  1.187739874703E-01 -2.723505345356E-01
H37  2.318127002806E-01  2.853320120302E-01  1.551867133965E-01
H38 -2.318127002806E-01 -2.146679879698E-01  3.448132866035E-01
H39 -2.318127002806E-01 -2.853320120302E-01 -1.551867133965E-01
H40  2.318127002806E-01  2.146679879698E-01 -3.448132866035E-01
C41  2.110784775164E-01 -4.984788912322E-01  3.968609204926E-01
C42 -2.110784775164E-01  1.521108767802E-03  1.031390795074E-01
C43 -2.110784775164E-01  4.984788912322E-01 -3.968609204926E-01
C44  2.110784775164E-01 -1.521108767803E-03 -1.031390795074E-01
C45  2.891645549324E-01 -4.965697827487E-01  4.791615120383E-01
C46 -2.891645549324E-01  3.430217251286E-03  2.083848796174E-02
C47 -2.891645549324E-01  4.965697827487E-01 -4.791615120383E-01
C48  2.891645549324E-01 -3.430217251286E-03 -2.083848796174E-02
C49  3.025702943991E-01 -4.356935489010E-01 -3.042271990047E-01
C50 -3.025702943991E-01  6.430645109895E-02 -1.957728009953E-01
C51 -3.025702943991E-01  4.356935489010E-01  3.042271990047E-01
C52  3.025702943991E-01 -6.430645109895E-02  1.957728009953E-01
H53  2.544322894724E-01 -4.060219315564E-01 -1.982861167611E-01
H54 -2.544322894724E-01  9.397806844357E-02 -3.017138832389E-01
H55 -2.544322894724E-01  4.060219315564E-01  1.982861167611E-01
H56  2.544322894724E-01 -9.397806844357E-02  3.017138832389E-01
C57  3.741057063982E-01 -4.171915749067E-01 -2.274558196861E-01
C58 -3.741057063982E-01  8.280842509326E-02 -2.725441803139E-01
C59 -3.741057063982E-01  4.171915749067E-01  2.274558196861E-01
C60  3.741057063982E-01 -8.280842509326E-02  2.725441803139E-01
H61  3.827501463513E-01 -3.684804284445E-01 -6.353458110217E-02
H62 -3.827501463513E-01  1.315195715555E-01 -4.364654188978E-01
H63 -3.827501463513E-01  3.684804284445E-01  6.353458110217E-02
H64  3.827501463513E-01 -1.315195715555E-01  4.364654188978E-01
C65  4.383358522140E-01 -4.575694937737E-01 -3.613092186141E-01
C66 -4.383358522140E-01  4.243050622627E-02 -1.386907813859E-01
C67 -4.383358522140E-01  4.575694937737E-01  3.613092186141E-01
C68  4.383358522140E-01 -4.243050622627E-02  1.386907813859E-01
C69  4.255781526231E-01  4.710103998174E-01  4.247851778850E-01
C70 -4.255781526231E-01 -2.898960018258E-02  7.521482211499E-02
C71 -4.255781526231E-01 -4.710103998174E-01 -4.247851778850E-01
C72  4.255781526231E-01  2.898960018258E-02 -7.521482211499E-02
C73  3.499931120989E-01  4.524903380266E-01  3.512338762361E-01
C74 -3.499931120989E-01 -4.750966197341E-02  1.487661237639E-01
C75 -3.499931120989E-01 -4.524903380266E-01 -3.512338762361E-01
C76  3.499931120989E-01  4.750966197341E-02 -1.487661237639E-01
H77  3.419975340358E-01  4.049759762957E-01  1.864660314081E-01
H78 -3.419975340358E-01 -9.502402370435E-02  3.135339685919E-01
H79 -3.419975340358E-01 -4.049759762957E-01 -1.864660314081E-01
H80  3.419975340358E-01  9.502402370435E-02 -3.135339685919E-01
C81 -4.878266720352E-01 -4.291278039715E-01 -2.911749524463E-01
C82  4.878266720352E-01  7.087219602855E-02 -2.088250475537E-01
C83  4.878266720352E-01  4.291278039715E-01  2.911749524463E-01
C84 -4.878266720352E-01 -7.087219602855E-02  2.088250475537E-01
H85 -4.787808186613E-01 -3.745522552481E-01 -1.293741750698E-01
H86  4.787808186613E-01  1.254477447519E-01 -3.706258249302E-01
H87  4.787808186613E-01  3.745522552481E-01  1.293741750698E-01
H88 -4.787808186613E-01 -1.254477447519E-01  3.706258249302E-01


#===END

data_OPT_STEP_20

_symmetry_space_group_name_H-M 'P 1'
_cell_length_a     17.61814878
_cell_length_b      6.96205608
_cell_length_c      6.14180541
_cell_angle_alpha   90.000000
_cell_angle_beta   89.492728
_cell_angle_gamma   90.000000

loop_
_atom_site_label
_atom_site_fract_x
_atom_site_fract_y
_atom_site_fract_z
C1  1.552557141565E-01 -3.826549121697E-01  4.865916907160E-01
C2 -1.552557141565E-01  1.173450878303E-01  1.340830928398E-02
C3 -1.552557141565E-01  3.826549121697E-01 -4.865916907160E-01
C4  1.552557141565E-01 -1.173450878303E-01 -1.340830928398E-02
H5  1.696686560107E-01 -2.853946025814E-01 -3.822441104529E-01
H6 -1.696686560107E-01  2.146053974186E-01 -1.177558895471E-01
H7 -1.696686560107E-01  2.853946025814E-01  3.822441104529E-01
H8  1.696686560107E-01 -2.146053974186E-01  1.177558895471E-01
C9  8.137932785679E-02 -3.856687463014E-01  4.123828370508E-01
C10 -8.137932785679E-02  1.143312536986E-01  8.761716294923E-02
C11 -8.137932785679E-02  3.856687463014E-01 -4.123828370508E-01
C12  8.137932785679E-02 -1.143312536986E-01 -8.761716294923E-02
H13  3.973786515021E-02 -2.930129779600E-01  4.866274286920E-01
H14 -3.973786515021E-02  2.069870220400E-01  1.337257130801E-02
H15 -3.973786515021E-02  2.930129779600E-01 -4.866274286920E-01
H16  3.973786515021E-02 -2.069870220400E-01 -1.337257130801E-02
C17  6.093952483720E-02  4.942257708629E-01  2.425659586505E-01
C18 -6.093952483720E-02 -5.774229137125E-03  2.574340413495E-01
C19 -6.093952483720E-02 -4.942257708629E-01 -2.425659586505E-01
C20  6.093952483720E-02  5.774229137125E-03 -2.574340413495E-01
H21  2.528093593272E-03  4.898225395944E-01  1.896156153105E-01
H22 -2.528093593272E-03 -1.017746040565E-02  3.103843846895E-01
H23 -2.528093593272E-03 -4.898225395944E-01 -1.896156153105E-01
H24  2.528093593272E-03  1.017746040565E-02 -3.103843846895E-01
C25  1.158896525411E-01  3.803132417074E-01  1.431807065790E-01
C26 -1.158896525411E-01 -1.196867582926E-01  3.568192934210E-01
C27 -1.158896525411E-01 -3.803132417074E-01 -1.431807065790E-01
C28  1.158896525411E-01  1.196867582926E-01 -3.568192934210E-01
H29  1.010104551911E-01  2.834505157986E-01  1.198978192401E-02
H30 -1.010104551911E-01 -2.165494842014E-01  4.880102180760E-01
H31 -1.010104551911E-01 -2.834505157986E-01 -1.198978192401E-02
H32  1.010104551911E-01  2.165494842014E-01 -4.880102180760E-01
C33  1.900949007091E-01  3.846480245608E-01  2.162901393467E-01
C34 -1.900949007091E-01 -1.153519754392E-01  2.837098606533E-01
C35 -1.900949007091E-01 -3.846480245608E-01 -2.162901393467E-01
C36  1.900949007091E-01  1.153519754392E-01 -2.837098606533E-01
H37  2.317046130573E-01  2.901309539684E-01  1.398134894218E-01
H38 -2.317046130573E-01 -2.098690460316E-01  3.601865105782E-01
H39 -2.317046130573E-01 -2.901309539684E-01 -1.398134894218E-01
H40  2.317046130573E-01  2.098690460316E-01 -3.601865105782E-01
C41  2.110642975537E-01 -4.985855664733E-01  3.910220186271E-01
C42 -2.110642975537E-01  1.414433526712E-03  1.089779813729E-01
C43 -2.110642975537E-01  4.985855664733E-01 -3.910220186271E-01
C44  2.110642975537E-01 -1.414433526713E-03 -1.089779813729E-01
C45  2.891731043966E-01 -4.977355478669E-01  4.754499885775E-01
C46 -2.891731043966E-01  2.264452133129E-03  2.455001142254E-02
C47 -2.891731043966E-01  4.977355478669E-01 -4.754499885775E-01
C48  2.891731043966E-01 -2.264452133129E-03 -2.455001142254E-02
C49  3.025239089123E-01 -4.374592096392E-01 -3.060124753143E-01
C50 -3.025239089123E-01  6.254079036084E-02 -1.939875246857E-01
C51 -3.025239089123E-01  4.374592096392E-01  3.060124753143E-01
C52  3.025239089123E-01 -6.254079036084E-02  1.939875246857E-01
H53  2.543562986461E-01 -4.083005412213E-01 -1.998874608910E-01
H54 -2.543562986461E-01  9.169945877866E-02 -3.001125391090E-01
H55 -2.543562986461E-01  4.083005412213E-01  1.998874608910E-01
H56  2.543562986461E-01 -9.169945877866E-02  3.001125391090E-01
C57  3.739996975399E-01 -4.165734025793E-01 -2.283856951880E-01
C58 -3.739996975399E-01  8.342659742066E-02 -2.716143048120E-01
C59 -3.739996975399E-01  4.165734025793E-01  2.283856951880E-01
C60  3.739996975399E-01 -8.342659742066E-02  2.716143048120E-01
H61  3.823386310212E-01 -3.675605707268E-01 -6.321695552148E-02
H62 -3.823386310212E-01  1.324394292732E-01 -4.367830444785E-01
H63 -3.823386310212E-01  3.675605707268E-01  6.321695552148E-02
H64  3.823386310212E-01 -1.324394292732E-01  4.367830444785E-01
C65  4.382899482599E-01 -4.569199329509E-01 -3.618453715575E-01
C66 -4.382899482599E-01  4.308006704911E-02 -1.381546284425E-01
C67 -4.382899482599E-01  4.569199329509E-01  3.618453715575E-01
C68  4.382899482599E-01 -4.308006704911E-02  1.381546284425E-01
C69  4.255922042012E-01  4.700667532127E-01  4.234249596116E-01
C70 -4.255922042012E-01 -2.993324678725E-02  7.657504038835E-02
C71 -4.255922042012E-01 -4.700667532127E-01 -4.234249596116E-01
C72  4.255922042012E-01  2.993324678725E-02 -7.657504038835E-02
C73  3.500783785685E-01  4.501026994441E-01  3.485879478338E-01
C74 -3.500783785685E-01 -4.989730055589E-02  1.514120521662E-01
C75 -3.500783785685E-01 -4.501026994441E-01 -3.485879478338E-01
C76  3.500783785685E-01  4.989730055589E-02 -1.514120521662E-01
H77  3.423709016709E-01  4.008510366345E-01  1.828508115877E-01
H78 -3.423709016709E-01 -9.914896336549E-02  3.171491884123E-01
H79 -3.423709016709E-01 -4.008510366345E-01 -1.828508115877E-01
H80  3.423709016709E-01  9.914896336549E-02 -3.171491884123E-01
C81 -4.878882821862E-01 -4.274293043951E-01 -2.903232035568E-01
C82  4.878882821862E-01  7.257069560490E-02 -2.096767964432E-01
C83  4.878882821862E-01  4.274293043951E-01  2.903232035568E-01
C84 -4.878882821862E-01 -7.257069560490E-02  2.096767964432E-01
H85 -4.790461709131E-01 -3.710815231076E-01 -1.279816717946E-01
H86  4.790461709131E-01  1.289184768924E-01 -3.720183282054E-01
H87  4.790461709131E-01  3.710815231076E-01  1.279816717946E-01
H88 -4.790461709131E-01 -1.289184768924E-01  3.720183282054E-01


#===END

data_OPT_STEP_21

_symmetry_space_group_name_H-M 'P 1'
_cell_length_a     17.55381133
_cell_length_b      7.02303938
_cell_length_c      6.11790575
_cell_angle_alpha   90.000000
_cell_angle_beta   89.413298
_cell_angle_gamma   90.000000

loop_
_atom_site_label
_atom_site_fract_x
_atom_site_fract_y
_atom_site_fract_z
C1  1.538067097359E-01 -3.850794248631E-01  4.868513307572E-01
C2 -1.538067097359E-01  1.149205751369E-01  1.314866924282E-02
C3 -1.538067097359E-01  3.850794248631E-01 -4.868513307572E-01
C4  1.538067097359E-01 -1.149205751369E-01 -1.314866924282E-02
H5  1.676247177362E-01 -2.904924746645E-01 -3.793911241795E-01
H6 -1.676247177362E-01  2.095075253355E-01 -1.206088758205E-01
H7 -1.676247177362E-01  2.904924746645E-01  3.793911241795E-01
H8  1.676247177362E-01 -2.095075253355E-01  1.206088758205E-01
C9  7.981234650837E-02 -3.876211106241E-01  4.114692621906E-01
C10 -7.981234650837E-02  1.123788893759E-01  8.853073780936E-02
C11 -7.981234650837E-02  3.876211106241E-01 -4.114692621906E-01
C12  7.981234650837E-02 -1.123788893759E-01 -8.853073780936E-02
H13  3.746780354773E-02 -2.983084690518E-01  4.892656977145E-01
H14 -3.746780354773E-02  2.016915309482E-01  1.073430228553E-02
H15 -3.746780354773E-02  2.983084690518E-01 -4.892656977145E-01
H16  3.746780354773E-02 -2.016915309482E-01 -1.073430228553E-02
C17  5.992280237201E-02  4.958947886168E-01  2.376573567079E-01
C18 -5.992280237201E-02 -4.105211383237E-03  2.623426432921E-01
C19 -5.992280237201E-02 -4.958947886168E-01 -2.376573567079E-01
C20  5.992280237201E-02  4.105211383236E-03 -2.623426432921E-01
H21  1.065451579258E-03  4.889449294261E-01  1.864362299053E-01
H22 -1.065451579258E-03 -1.105507057388E-02  3.135637700947E-01
H23 -1.065451579258E-03 -4.889449294261E-01 -1.864362299053E-01
H24  1.065451579258E-03  1.105507057388E-02 -3.135637700947E-01
C25  1.158016597975E-01  3.877124746557E-01  1.334924017388E-01
C26 -1.158016597975E-01 -1.122875253443E-01  3.665075982612E-01
C27 -1.158016597975E-01 -3.877124746557E-01 -1.334924017388E-01
C28  1.158016597975E-01  1.122875253443E-01 -3.665075982612E-01
H29  1.018343060138E-01  2.966743048908E-01 -3.458394742334E-03
H30 -1.018343060138E-01 -2.033256951092E-01 -4.965416052577E-01
H31 -1.018343060138E-01 -2.966743048908E-01  3.458394742334E-03
H32  1.018343060138E-01  2.033256951092E-01  4.965416052577E-01
C33  1.898945616070E-01  3.903314943998E-01  2.091483787921E-01
C34 -1.898945616070E-01 -1.096685056002E-01  2.908516212079E-01
C35 -1.898945616070E-01 -3.903314943998E-01 -2.091483787921E-01
C36  1.898945616070E-01  1.096685056002E-01 -2.908516212079E-01
H37  2.318731085463E-01  2.981980652804E-01  1.305465017078E-01
H38 -2.318731085463E-01 -2.018019347196E-01  3.694534982922E-01
H39 -2.318731085463E-01 -2.981980652804E-01 -1.305465017078E-01
H40  2.318731085463E-01  2.018019347196E-01 -3.694534982922E-01
C41  2.101799646831E-01 -4.987782254129E-01  3.896344667210E-01
C42 -2.101799646831E-01  1.221774587064E-03  1.103655332790E-01
C43 -2.101799646831E-01  4.987782254129E-01 -3.896344667210E-01
C44  2.101799646831E-01 -1.221774587064E-03 -1.103655332790E-01
C45  2.884031650816E-01 -4.991725784059E-01  4.756613783915E-01
C46 -2.884031650816E-01  8.274215940918E-04  2.433862160853E-02
C47 -2.884031650816E-01  4.991725784059E-01 -4.756613783915E-01
C48  2.884031650816E-01 -8.274215940921E-04 -2.433862160853E-02
C49  3.016944719523E-01 -4.384033112148E-01 -3.054743253955E-01
C50 -3.016944719523E-01  6.159668878524E-02 -1.945256746045E-01
C51 -3.016944719523E-01  4.384033112148E-01  3.054743253955E-01
C52  3.016944719523E-01 -6.159668878524E-02  1.945256746045E-01
H53  2.534331666803E-01 -4.084572482608E-01 -1.990709906313E-01
H54 -2.534331666803E-01  9.154275173918E-02 -3.009290093687E-01
H55 -2.534331666803E-01  4.084572482608E-01  1.990709906313E-01
H56  2.534331666803E-01 -9.154275173918E-02  3.009290093687E-01
C57  3.733712095525E-01 -4.193340202819E-01 -2.269591341970E-01
C58 -3.733712095525E-01  8.066597971812E-02 -2.730408658030E-01
C59 -3.733712095525E-01  4.193340202819E-01  2.269591341970E-01
C60  3.733712095525E-01 -8.066597971812E-02  2.730408658030E-01
H61  3.816639712778E-01 -3.701937683201E-01 -6.109477635361E-02
H62 -3.816639712778E-01  1.298062316799E-01 -4.389052236464E-01
H63 -3.816639712778E-01  3.701937683201E-01  6.109477635361E-02
H64  3.816639712778E-01 -1.298062316799E-01  4.389052236464E-01
C65  4.380011726822E-01 -4.590182891627E-01 -3.607627436080E-01
C66 -4.380011726822E-01  4.098171083730E-02 -1.392372563920E-01
C67 -4.380011726822E-01  4.590182891627E-01  3.607627436080E-01
C68  4.380011726822E-01 -4.098171083730E-02  1.392372563920E-01
C69  4.253863306156E-01  4.678628089938E-01  4.242286329487E-01
C70 -4.253863306156E-01 -3.213719100617E-02  7.577136705129E-02
C71 -4.253863306156E-01 -4.678628089938E-01 -4.242286329487E-01
C72  4.253863306156E-01  3.213719100617E-02 -7.577136705129E-02
C73  3.496483868482E-01  4.475726136471E-01  3.494980816588E-01
C74 -3.496483868482E-01 -5.242738635287E-02  1.505019183412E-01
C75 -3.496483868482E-01 -4.475726136471E-01 -3.494980816588E-01
C76  3.496483868482E-01  5.242738635287E-02 -1.505019183412E-01
H77  3.420325368308E-01  3.973561358965E-01  1.833080946450E-01
H78 -3.420325368308E-01 -1.026438641035E-01  3.166919053550E-01
H79 -3.420325368308E-01 -3.973561358965E-01 -1.833080946450E-01
H80  3.420325368308E-01  1.026438641035E-01 -3.166919053550E-01
C81 -4.879556962390E-01 -4.277790886706E-01 -2.898096410115E-01
C82  4.879556962390E-01  7.222091132938E-02 -2.101903589885E-01
C83  4.879556962390E-01  4.277790886706E-01  2.898096410115E-01
C84 -4.879556962390E-01 -7.222091132938E-02  2.101903589885E-01
H85 -4.791840695759E-01 -3.700442718984E-01 -1.274847821087E-01
H86  4.791840695759E-01  1.299557281016E-01 -3.725152178913E-01
H87  4.791840695759E-01  3.700442718984E-01  1.274847821087E-01
H88 -4.791840695759E-01 -1.299557281016E-01  3.725152178913E-01


#===END

data_OPT_STEP_22

_symmetry_space_group_name_H-M 'P 1'
_cell_length_a     17.57979321
_cell_length_b      6.93278132
_cell_length_c      6.11913953
_cell_angle_alpha   90.000000
_cell_angle_beta   89.493489
_cell_angle_gamma   90.000000

loop_
_atom_site_label
_atom_site_fract_x
_atom_site_fract_y
_atom_site_fract_z
C1  1.539186955176E-01 -3.879208800390E-01  4.893434099879E-01
C2 -1.539186955176E-01  1.120791199610E-01  1.065659001212E-02
C3 -1.539186955176E-01  3.879208800390E-01 -4.893434099879E-01
C4  1.539186955176E-01 -1.120791199610E-01 -1.065659001213E-02
H5  1.676970092026E-01 -2.929182900932E-01 -3.765179203503E-01
H6 -1.676970092026E-01  2.070817099068E-01 -1.234820796497E-01
H7 -1.676970092026E-01  2.929182900932E-01  3.765179203503E-01
H8  1.676970092026E-01 -2.070817099068E-01  1.234820796497E-01
C9  8.003910372565E-02 -3.905140203721E-01  4.133908316470E-01
C10 -8.003910372565E-02  1.094859796279E-01  8.660916835295E-02
C11 -8.003910372565E-02  3.905140203721E-01 -4.133908316470E-01
C12  8.003910372565E-02 -1.094859796279E-01 -8.660916835295E-02
H13  3.770650406087E-02 -3.005538939328E-01  4.909606162892E-01
H14 -3.770650406087E-02  1.994461060672E-01  9.039383710794E-03
H15 -3.770650406087E-02  3.005538939328E-01 -4.909606162892E-01
H16  3.770650406087E-02 -1.994461060672E-01 -9.039383710794E-03
C17  6.035137714544E-02  4.934856310884E-01  2.383081257998E-01
C18 -6.035137714544E-02 -6.514368911613E-03  2.616918742002E-01
C19 -6.035137714544E-02 -4.934856310884E-01 -2.383081257998E-01
C20  6.035137714544E-02  6.514368911613E-03 -2.616918742002E-01
H21  1.670538601218E-03  4.879798378926E-01  1.861319196709E-01
H22 -1.670538601218E-03 -1.202016210738E-02  3.138680803291E-01
H23 -1.670538601218E-03 -4.879798378926E-01 -1.861319196709E-01
H24  1.670538601218E-03  1.202016210738E-02 -3.138680803291E-01
C25  1.156683684403E-01  3.793920625451E-01  1.390913297430E-01
C26 -1.156683684403E-01 -1.206079374549E-01  3.609086702570E-01
C27 -1.156683684403E-01 -3.793920625451E-01 -1.390913297430E-01
C28  1.156683684403E-01  1.206079374549E-01 -3.609086702570E-01
H29  1.012990348380E-01  2.835324330290E-01  5.764929406541E-03
H30 -1.012990348380E-01 -2.164675669710E-01  4.942350705935E-01
H31 -1.012990348380E-01 -2.835324330290E-01 -5.764929406541E-03
H32  1.012990348380E-01  2.164675669710E-01 -4.942350705935E-01
C33  1.900889935905E-01  3.854898362381E-01  2.120726252935E-01
C34 -1.900889935905E-01 -1.145101637619E-01  2.879273747065E-01
C35 -1.900889935905E-01 -3.854898362381E-01 -2.120726252935E-01
C36  1.900889935905E-01  1.145101637619E-01 -2.879273747065E-01
H37  2.323951971854E-01  2.958048850534E-01  1.313952239344E-01
H38 -2.323951971854E-01 -2.041951149466E-01  3.686047760656E-01
H39 -2.323951971854E-01 -2.958048850534E-01 -1.313952239344E-01
H40  2.323951971854E-01  2.041951149466E-01 -3.686047760656E-01
C41  2.103958806584E-01  4.989802037481E-01  3.909450324138E-01
C42 -2.103958806584E-01 -1.019796251895E-03  1.090549675862E-01
C43 -2.103958806584E-01 -4.989802037481E-01 -3.909450324138E-01
C44  2.103958806584E-01  1.019796251895E-03 -1.090549675862E-01
C45  2.886054804165E-01 -4.989133796481E-01  4.754245527209E-01
C46 -2.886054804165E-01  1.086620351919E-03  2.457544727913E-02
C47 -2.886054804165E-01  4.989133796481E-01 -4.754245527209E-01
C48  2.886054804165E-01 -1.086620351919E-03 -2.457544727913E-02
C49  3.020169101586E-01 -4.355926686611E-01 -3.062810674777E-01
C50 -3.020169101586E-01  6.440733133892E-02 -1.937189325223E-01
C51 -3.020169101586E-01  4.355926686611E-01  3.062810674777E-01
C52  3.020169101586E-01 -6.440733133892E-02  1.937189325223E-01
H53  2.539284779033E-01 -4.059019297811E-01 -1.995400334271E-01
H54 -2.539284779033E-01  9.409807021886E-02 -3.004599665729E-01
H55 -2.539284779033E-01  4.059019297811E-01  1.995400334271E-01
H56  2.539284779033E-01 -9.409807021886E-02  3.004599665729E-01
C57  3.736538151760E-01 -4.129037045991E-01 -2.291219746804E-01
C58 -3.736538151760E-01  8.709629540088E-02 -2.708780253196E-01
C59 -3.736538151760E-01  4.129037045991E-01  2.291219746804E-01
C60  3.736538151760E-01 -8.709629540088E-02  2.708780253196E-01
H61  3.820933520389E-01 -3.634844915477E-01 -6.326168902843E-02
H62 -3.820933520389E-01  1.365155084523E-01 -4.367383109716E-01
H63 -3.820933520389E-01  3.634844915477E-01  6.326168902843E-02
H64  3.820933520389E-01 -1.365155084523E-01  4.367383109716E-01
C65  4.381308563947E-01 -4.535430797308E-01 -3.628718220273E-01
C66 -4.381308563947E-01  4.645692026925E-02 -1.371281779727E-01
C67 -4.381308563947E-01  4.535430797308E-01  3.628718220273E-01
C68  4.381308563947E-01 -4.645692026925E-02  1.371281779727E-01
C69  4.254642768439E-01  4.721018060100E-01  4.220057304967E-01
C70 -4.254642768439E-01 -2.789819398998E-02  7.799426950334E-02
C71 -4.254642768439E-01 -4.721018060100E-01 -4.220057304967E-01
C72  4.254642768439E-01  2.789819398998E-02 -7.799426950334E-02
C73  3.497804524653E-01  4.508486171898E-01  3.474117301447E-01
C74 -3.497804524653E-01 -4.915138281017E-02  1.525882698553E-01
C75 -3.497804524653E-01 -4.508486171898E-01 -3.474117301447E-01
C76  3.497804524653E-01  4.915138281017E-02 -1.525882698553E-01
H77  3.420839052055E-01  4.009749949620E-01  1.810124408919E-01
H78 -3.420839052055E-01 -9.902500503800E-02  3.189875591081E-01
H79 -3.420839052055E-01 -4.009749949620E-01 -1.810124408919E-01
H80  3.420839052055E-01  9.902500503800E-02 -3.189875591081E-01
C81 -4.879046994377E-01 -4.267284670703E-01 -2.897265948992E-01
C82  4.879046994377E-01  7.327153292971E-02 -2.102734051008E-01
C83  4.879046994377E-01  4.267284670703E-01  2.897265948992E-01
C84 -4.879046994377E-01 -7.327153292971E-02  2.102734051008E-01
H85 -4.789939498584E-01 -3.701696704597E-01 -1.267023795428E-01
H86  4.789939498584E-01  1.298303295403E-01 -3.732976204572E-01
H87  4.789939498584E-01  3.701696704597E-01  1.267023795428E-01
H88 -4.789939498584E-01 -1.298303295403E-01  3.732976204572E-01


#===END

data_OPT_STEP_23

_symmetry_space_group_name_H-M 'P 1'
_cell_length_a     17.55605720
_cell_length_b      7.00427316
_cell_length_c      6.11880641
_cell_angle_alpha   90.000000
_cell_angle_beta   89.413616
_cell_angle_gamma   90.000000

loop_
_atom_site_label
_atom_site_fract_x
_atom_site_fract_y
_atom_site_fract_z
C1  1.537450065160E-01 -3.862931005537E-01  4.875649126255E-01
C2 -1.537450065160E-01  1.137068994463E-01  1.243508737453E-02
C3 -1.537450065160E-01  3.862931005537E-01 -4.875649126255E-01
C4  1.537450065160E-01 -1.137068994463E-01 -1.243508737453E-02
H5  1.675237271372E-01 -2.918335300841E-01 -3.784630426142E-01
H6 -1.675237271372E-01  2.081664699159E-01 -1.215369573858E-01
H7 -1.675237271372E-01  2.918335300841E-01  3.784630426142E-01
H8  1.675237271372E-01 -2.081664699159E-01  1.215369573858E-01
C9  7.977885084896E-02 -3.887553189271E-01  4.119190419524E-01
C10 -7.977885084896E-02  1.112446810729E-01  8.808095804762E-02
C11 -7.977885084896E-02  3.887553189271E-01 -4.119190419524E-01
C12  7.977885084896E-02 -1.112446810729E-01 -8.808095804762E-02
H13  3.738722042685E-02 -2.995055347841E-01  4.898481823147E-01
H14 -3.738722042685E-02  2.004944652159E-01  1.015181768532E-02
H15 -3.738722042685E-02  2.995055347841E-01 -4.898481823147E-01
H16  3.738722042685E-02 -2.004944652159E-01 -1.015181768532E-02
C17  6.002214517479E-02  4.955671170938E-01  2.373089292469E-01
C18 -6.002214517479E-02 -4.432882906152E-03  2.626910707531E-01
C19 -6.002214517479E-02 -4.955671170938E-01 -2.373089292469E-01
C20  6.002214517479E-02  4.432882906152E-03 -2.626910707531E-01
H21  1.201357015256E-03  4.889125291628E-01  1.858874359367E-01
H22 -1.201357015256E-03 -1.108747083719E-02  3.141125640633E-01
H23 -1.201357015256E-03 -4.889125291628E-01 -1.858874359367E-01
H24  1.201357015256E-03  1.108747083719E-02 -3.141125640633E-01
C25  1.157497776384E-01  3.856981357103E-01  1.347231080383E-01
C26 -1.157497776384E-01 -1.143018642897E-01  3.652768919617E-01
C27 -1.157497776384E-01 -3.856981357103E-01 -1.347231080383E-01
C28  1.157497776384E-01  1.143018642897E-01 -3.652768919617E-01
H29  1.017038085967E-01  2.935711712420E-01 -1.376728479122E-03
H30 -1.017038085967E-01 -2.064288287580E-01 -4.986232715209E-01
H31 -1.017038085967E-01 -2.935711712420E-01  1.376728479122E-03
H32  1.017038085967E-01  2.064288287580E-01  4.986232715209E-01
C33  1.899484843885E-01  3.892104301080E-01  2.097029449657E-01
C34 -1.899484843885E-01 -1.107895698920E-01  2.902970550343E-01
C35 -1.899484843885E-01 -3.892104301080E-01 -2.097029449657E-01
C36  1.899484843885E-01  1.107895698920E-01 -2.902970550343E-01
H37  2.320933286986E-01  2.983921045138E-01  1.301417680067E-01
H38 -2.320933286986E-01 -2.016078954862E-01  3.698582319933E-01
H39 -2.320933286986E-01 -2.983921045138E-01 -1.301417680067E-01
H40  2.320933286986E-01  2.016078954862E-01 -3.698582319933E-01
C41  2.101885334054E-01 -4.995113217557E-01  3.898681933290E-01
C42 -2.101885334054E-01  4.886782442977E-04  1.101318066710E-01
C43 -2.101885334054E-01  4.995113217557E-01 -3.898681933290E-01
C44  2.101885334054E-01 -4.886782442979E-04 -1.101318066710E-01
C45  2.883929069018E-01 -4.992764088359E-01  4.755371877485E-01
C46 -2.883929069018E-01  7.235911641434E-04  2.446281225147E-02
C47 -2.883929069018E-01  4.992764088359E-01 -4.755371877485E-01
C48  2.883929069018E-01 -7.235911641436E-04 -2.446281225147E-02
C49  3.016725407461E-01 -4.378711234728E-01 -3.057176823413E-01
C50 -3.016725407461E-01  6.212887652717E-02 -1.942823176587E-01
C51 -3.016725407461E-01  4.378711234728E-01  3.057176823413E-01
C52  3.016725407461E-01 -6.212887652717E-02  1.942823176587E-01
H53  2.534455557871E-01 -4.083732942597E-01 -1.990606746689E-01
H54 -2.534455557871E-01  9.162670574031E-02 -3.009393253311E-01
H55 -2.534455557871E-01  4.083732942597E-01  1.990606746689E-01
H56  2.534455557871E-01 -9.162670574031E-02  3.009393253311E-01
C57  3.733505468497E-01 -4.169969436299E-01 -2.278818849017E-01
C58 -3.733505468497E-01  8.300305637008E-02 -2.721181150983E-01
C59 -3.733505468497E-01  4.169969436299E-01  2.278818849017E-01
C60  3.733505468497E-01 -8.300305637008E-02  2.721181150983E-01
H61  3.816901722740E-01 -3.677884171876E-01 -6.203138775288E-02
H62 -3.816901722740E-01  1.322115828124E-01 -4.379686122471E-01
H63 -3.816901722740E-01  3.677884171876E-01  6.203138775288E-02
H64  3.816901722740E-01 -1.322115828124E-01  4.379686122471E-01
C65  4.379868208831E-01 -4.568613956163E-01 -3.616662381017E-01
C66 -4.379868208831E-01  4.313860438371E-02 -1.383337618983E-01
C67 -4.379868208831E-01  4.568613956163E-01  3.616662381017E-01
C68  4.379868208831E-01 -4.313860438371E-02  1.383337618983E-01
C69  4.254094849478E-01  4.695200007554E-01  4.233674718862E-01
C70 -4.254094849478E-01 -3.047999924456E-02  7.663252811379E-02
C71 -4.254094849478E-01 -4.695200007554E-01 -4.233674718862E-01
C72  4.254094849478E-01  3.047999924456E-02 -7.663252811379E-02
C73  3.496800951920E-01  4.488369450754E-01  3.486802943884E-01
C74 -3.496800951920E-01 -5.116305492465E-02  1.513197056116E-01
C75 -3.496800951920E-01 -4.488369450753E-01 -3.486802943884E-01
C76  3.496800951920E-01  5.116305492465E-02 -1.513197056116E-01
H77  3.420622707538E-01  3.987518772452E-01  1.824520932953E-01
H78 -3.420622707538E-01 -1.012481227548E-01  3.175479067047E-01
H79 -3.420622707538E-01 -3.987518772452E-01 -1.824520932953E-01
H80  3.420622707538E-01  1.012481227548E-01 -3.175479067047E-01
C81 -4.879886952628E-01 -4.272351564083E-01 -2.899274941985E-01
C82  4.879886952628E-01  7.276484359174E-02 -2.100725058015E-01
C83  4.879886952628E-01  4.272351564083E-01  2.899274941985E-01
C84 -4.879886952628E-01 -7.276484359174E-02  2.100725058015E-01
H85 -4.791791503400E-01 -3.700957449717E-01 -1.273190255250E-01
H86  4.791791503400E-01  1.299042550283E-01 -3.726809744750E-01
H87  4.791791503400E-01  3.700957449717E-01  1.273190255250E-01
H88 -4.791791503400E-01 -1.299042550283E-01  3.726809744750E-01


#===END

data_OPT_STEP_24

_symmetry_space_group_name_H-M 'P 1'
_cell_length_a     17.56310211
_cell_length_b      6.98566179
_cell_length_c      6.11751004
_cell_angle_alpha   90.000000
_cell_angle_beta   89.552095
_cell_angle_gamma   90.000000

loop_
_atom_site_label
_atom_site_fract_x
_atom_site_fract_y
_atom_site_fract_z
C1  1.537977614669E-01 -3.866342368036E-01  4.869460178038E-01
C2 -1.537977614669E-01  1.133657631964E-01  1.305398219623E-02
C3 -1.537977614669E-01  3.866342368036E-01 -4.869460178038E-01
C4  1.537977614669E-01 -1.133657631964E-01 -1.305398219623E-02
H5  1.675238054097E-01 -2.923410581970E-01 -3.786607488151E-01
H6 -1.675238054097E-01  2.076589418030E-01 -1.213392511849E-01
H7 -1.675238054097E-01  2.923410581970E-01  3.786607488151E-01
H8  1.675238054097E-01 -2.076589418030E-01  1.213392511849E-01
C9  7.980506099983E-02 -3.894495565685E-01  4.111000637905E-01
C10 -7.980506099983E-02  1.105504434315E-01  8.889993620954E-02
C11 -7.980506099983E-02  3.894495565685E-01 -4.111000637905E-01
C12  7.980506099983E-02 -1.105504434315E-01 -8.889993620954E-02
H13  3.722151450274E-02 -3.014870640807E-01  4.903812871543E-01
H14 -3.722151450274E-02  1.985129359193E-01  9.618712845688E-03
H15 -3.722151450274E-02  3.014870640807E-01 -4.903812871543E-01
H16  3.722151450274E-02 -1.985129359193E-01 -9.618712845688E-03
C17  6.002626942574E-02  4.950009987529E-01  2.362077307948E-01
C18 -6.002626942574E-02 -4.999001247128E-03  2.637922692052E-01
C19 -6.002626942574E-02 -4.950009987529E-01 -2.362077307948E-01
C20  6.002626942574E-02  4.999001247127E-03 -2.637922692052E-01
H21  1.186200009436E-03  4.887221666135E-01  1.845526203065E-01
H22 -1.186200009436E-03 -1.127783338652E-02  3.154473796935E-01
H23 -1.186200009436E-03 -4.887221666135E-01 -1.845526203065E-01
H24  1.186200009436E-03  1.127783338652E-02 -3.154473796935E-01
C25  1.158414492244E-01  3.861077993814E-01  1.329281324145E-01
C26 -1.158414492244E-01 -1.138922006186E-01  3.670718675855E-01
C27 -1.158414492244E-01 -3.861077993814E-01 -1.329281324145E-01
C28  1.158414492244E-01  1.138922006186E-01 -3.670718675855E-01
H29  1.019096584832E-01  2.947339998742E-01 -4.227895315315E-03
H30 -1.019096584832E-01 -2.052660001258E-01 -4.957721046847E-01
H31 -1.019096584832E-01 -2.947339998742E-01  4.227895315315E-03
H32  1.019096584832E-01  2.052660001258E-01  4.957721046847E-01
C33  1.900482461351E-01  3.895355618718E-01  2.084841909811E-01
C34 -1.900482461351E-01 -1.104644381282E-01  2.915158090189E-01
C35 -1.900482461351E-01 -3.895355618718E-01 -2.084841909811E-01
C36  1.900482461351E-01  1.104644381282E-01 -2.915158090189E-01
H37  2.322783640764E-01  2.997498971369E-01  1.284095533520E-01
H38 -2.322783640764E-01 -2.002501028631E-01  3.715904466480E-01
H39 -2.322783640764E-01 -2.997498971369E-01 -1.284095533520E-01
H40  2.322783640764E-01  2.002501028631E-01 -3.715904466480E-01
C41  2.102573004341E-01 -4.994569649964E-01  3.889952017389E-01
C42 -2.102573004341E-01  5.430350035527E-04  1.110047982611E-01
C43 -2.102573004341E-01  4.994569649964E-01 -3.889952017389E-01
C44  2.102573004341E-01 -5.430350035529E-04 -1.110047982611E-01
C45  2.884470321157E-01 -4.988304600549E-01  4.747247109904E-01
C46 -2.884470321157E-01  1.169539945080E-03  2.527528900963E-02
C47 -2.884470321157E-01  4.988304600549E-01 -4.747247109904E-01
C48  2.884470321157E-01 -1.169539945081E-03 -2.527528900963E-02
C49  3.018175355015E-01 -4.374404598763E-01 -3.062369522809E-01
C50 -3.018175355015E-01  6.255954012375E-02 -1.937630477191E-01
C51 -3.018175355015E-01  4.374404598763E-01  3.062369522809E-01
C52  3.018175355015E-01 -6.255954012375E-02  1.937630477191E-01
H53  2.537243432959E-01 -4.077843868998E-01 -1.994812191470E-01
H54 -2.537243432959E-01  9.221561310022E-02 -3.005187808530E-01
H55 -2.537243432959E-01  4.077843868998E-01  1.994812191470E-01
H56  2.537243432959E-01 -9.221561310022E-02  3.005187808530E-01
C57  3.735134648237E-01 -4.168760079091E-01 -2.280276231085E-01
C58 -3.735134648237E-01  8.312399209094E-02 -2.719723768915E-01
C59 -3.735134648237E-01  4.168760079091E-01  2.280276231085E-01
C60  3.735134648237E-01 -8.312399209094E-02  2.719723768915E-01
H61  3.820148629310E-01 -3.672556807038E-01 -6.219061702639E-02
H62 -3.820148629310E-01  1.327443192962E-01 -4.378093829736E-01
H63 -3.820148629310E-01  3.672556807038E-01  6.219061702639E-02
H64  3.820148629310E-01 -1.327443192962E-01  4.378093829736E-01
C65  4.380768363960E-01 -4.569951517876E-01 -3.616188100990E-01
C66 -4.380768363960E-01  4.300484821242E-02 -1.383811899010E-01
C67 -4.380768363960E-01  4.569951517876E-01  3.616188100990E-01
C68  4.380768363960E-01 -4.300484821242E-02  1.383811899010E-01
C69  4.254252420434E-01  4.697480558184E-01  4.229077358303E-01
C70 -4.254252420434E-01 -3.025194418164E-02  7.709226416973E-02
C71 -4.254252420434E-01 -4.697480558184E-01 -4.229077358303E-01
C72  4.254252420434E-01  3.025194418164E-02 -7.709226416973E-02
C73  3.496725740053E-01  4.491319076892E-01  3.479671010801E-01
C74 -3.496725740053E-01 -5.086809231080E-02  1.520328989199E-01
C75 -3.496725740053E-01 -4.491319076892E-01 -3.479671010801E-01
C76  3.496725740053E-01  5.086809231080E-02 -1.520328989199E-01
H77  3.419458634821E-01  3.988644430516E-01  1.817194810270E-01
H78 -3.419458634821E-01 -1.011355569484E-01  3.182805189730E-01
H79 -3.419458634821E-01 -3.988644430516E-01 -1.817194810270E-01
H80  3.419458634821E-01  1.011355569484E-01 -3.182805189730E-01
C81 -4.879238927325E-01 -4.271664863794E-01 -2.896877058781E-01
C82  4.879238927325E-01  7.283351362062E-02 -2.103122941219E-01
C83  4.879238927325E-01  4.271664863794E-01  2.896877058781E-01
C84 -4.879238927325E-01 -7.283351362062E-02  2.103122941219E-01
H85 -4.789893338927E-01 -3.707619996946E-01 -1.265752882804E-01
H86  4.789893338927E-01  1.292380003054E-01 -3.734247117196E-01
H87  4.789893338927E-01  3.707619996946E-01  1.265752882804E-01
H88 -4.789893338927E-01 -1.292380003054E-01  3.734247117196E-01


#===END

data_OPT_STEP_25

_symmetry_space_group_name_H-M 'P 1'
_cell_length_a     17.54570153
_cell_length_b      6.98407271
_cell_length_c      6.10291387
_cell_angle_alpha   90.000000
_cell_angle_beta   89.577136
_cell_angle_gamma   90.000000

loop_
_atom_site_label
_atom_site_fract_x
_atom_site_fract_y
_atom_site_fract_z
C1  1.530468369194E-01 -3.896207420466E-01  4.882102724622E-01
C2 -1.530468369194E-01  1.103792579534E-01  1.178972753776E-02
C3 -1.530468369194E-01  3.896207420466E-01 -4.882102724622E-01
C4  1.530468369194E-01 -1.103792579534E-01 -1.178972753776E-02
H5  1.663635880449E-01 -2.972546399886E-01 -3.750555974187E-01
H6 -1.663635880449E-01  2.027453600114E-01 -1.249444025813E-01
H7 -1.663635880449E-01  2.972546399886E-01  3.750555974187E-01
H8  1.663635880449E-01 -2.027453600114E-01  1.249444025813E-01
C9  7.904445541940E-02 -3.924674176958E-01  4.114888008740E-01
C10 -7.904445541940E-02  1.075325823042E-01  8.851119912601E-02
C11 -7.904445541940E-02  3.924674176958E-01 -4.114888008740E-01
C12  7.904445541940E-02 -1.075325823042E-01 -8.851119912601E-02
H13  3.602375183614E-02 -3.067989899336E-01  4.931735254494E-01
H14 -3.602375183614E-02  1.932010100664E-01  6.826474550605E-03
H15 -3.602375183614E-02  3.067989899336E-01 -4.931735254494E-01
H16  3.602375183614E-02 -1.932010100664E-01 -6.826474550605E-03
C17  5.966684457509E-02  4.945468409731E-01  2.335296338299E-01
C18 -5.966684457509E-02 -5.453159026877E-03  2.664703661701E-01
C19 -5.966684457509E-02 -4.945468409731E-01 -2.335296338299E-01
C20  5.966684457509E-02  5.453159026877E-03 -2.664703661701E-01
H21  7.151650206113E-04  4.878265131662E-01  1.820491656355E-01
H22 -7.151650206113E-04 -1.217348683377E-02  3.179508343645E-01
H23 -7.151650206113E-04 -4.878265131662E-01 -1.820491656355E-01
H24  7.151650206113E-04  1.217348683377E-02 -3.179508343645E-01
C25  1.159304157195E-01  3.884471173106E-01  1.278436015349E-01
C26 -1.159304157195E-01 -1.115528826894E-01  3.721563984651E-01
C27 -1.159304157195E-01 -3.884471173106E-01 -1.278436015349E-01
C28  1.159304157195E-01  1.115528826894E-01 -3.721563984651E-01
H29  1.023761308045E-01  2.989659672618E-01 -1.172595140327E-02
H30 -1.023761308045E-01 -2.010340327382E-01 -4.882740485967E-01
H31 -1.023761308045E-01 -2.989659672618E-01  1.172595140327E-02
H32  1.023761308045E-01  2.010340327382E-01  4.882740485967E-01
C33  1.901804153572E-01  3.920921897911E-01  2.040608859311E-01
C34 -1.901804153572E-01 -1.079078102089E-01  2.959391140689E-01
C35 -1.901804153572E-01 -3.920921897911E-01 -2.040608859311E-01
C36  1.901804153572E-01  1.079078102089E-01 -2.959391140689E-01
H37  2.327516298410E-01  3.050367332179E-01  1.217973241066E-01
H38 -2.327516298410E-01 -1.949632667821E-01  3.782026758934E-01
H39 -2.327516298410E-01 -3.050367332179E-01 -1.217973241066E-01
H40  2.327516298410E-01  1.949632667821E-01 -3.782026758934E-01
C41  2.099574175499E-01 -4.998634034230E-01  3.878684086222E-01
C42 -2.099574175499E-01  1.365965769554E-04  1.121315913778E-01
C43 -2.099574175499E-01  4.998634034230E-01 -3.878684086222E-01
C44  2.099574175499E-01 -1.365965769556E-04 -1.121315913778E-01
C45  2.881847026504E-01 -4.991167559129E-01  4.741692927636E-01
C46 -2.881847026504E-01  8.832440871398E-04  2.583070723642E-02
C47 -2.881847026504E-01  4.991167559129E-01 -4.741692927636E-01
C48  2.881847026504E-01 -8.832440871401E-04 -2.583070723642E-02
C49  3.015557388895E-01 -4.370778043269E-01 -3.064341227704E-01
C50 -3.015557388895E-01  6.292219567313E-02 -1.935658772296E-01
C51 -3.015557388895E-01  4.370778043269E-01  3.064341227704E-01
C52  3.015557388895E-01 -6.292219567314E-02  1.935658772296E-01
H53  2.535347673724E-01 -4.063490991325E-01 -1.996510705799E-01
H54 -2.535347673724E-01  9.365090086749E-02 -3.003489294201E-01
H55 -2.535347673724E-01  4.063490991325E-01  1.996510705799E-01
H56  2.535347673724E-01 -9.365090086749E-02  3.003489294201E-01
C57  3.733231563711E-01 -4.167013686762E-01 -2.278373263346E-01
C58 -3.733231563711E-01  8.329863132384E-02 -2.721626736654E-01
C59 -3.733231563711E-01  4.167013686762E-01  2.278373263346E-01
C60  3.733231563711E-01 -8.329863132384E-02  2.721626736654E-01
H61  3.819312896572E-01 -3.666073326426E-01 -6.175155219130E-02
H62 -3.819312896572E-01  1.333926673574E-01 -4.382484478087E-01
H63 -3.819312896572E-01  3.666073326426E-01  6.175155219130E-02
H64  3.819312896572E-01 -1.333926673574E-01  4.382484478087E-01
C65  4.379896039059E-01 -4.568385487057E-01 -3.615125329260E-01
C66 -4.379896039059E-01  4.316145129434E-02 -1.384874670740E-01
C67 -4.379896039059E-01  4.568385487057E-01  3.615125329260E-01
C68  4.379896039059E-01 -4.316145129434E-02  1.384874670740E-01
C69  4.253788302083E-01  4.691956497188E-01  4.227251320982E-01
C70 -4.253788302083E-01 -3.080435028116E-02  7.727486790176E-02
C71 -4.253788302083E-01 -4.691956497188E-01 -4.227251320982E-01
C72  4.253788302083E-01  3.080435028116E-02 -7.727486790176E-02
C73  3.495499999411E-01  4.487889736941E-01  3.474006460148E-01
C74 -3.495499999411E-01 -5.121102630586E-02  1.525993539852E-01
C75 -3.495499999411E-01 -4.487889736941E-01 -3.474006460148E-01
C76  3.495499999411E-01  5.121102630586E-02 -1.525993539852E-01
H77  3.418089468565E-01  3.981424699233E-01  1.809189067557E-01
H78 -3.418089468565E-01 -1.018575300767E-01  3.190810932443E-01
H79 -3.418089468565E-01 -3.981424699233E-01 -1.809189067557E-01
H80  3.418089468565E-01  1.018575300767E-01 -3.190810932443E-01
C81 -4.879668845139E-01 -4.269829927643E-01 -2.891987084074E-01
C82  4.879668845139E-01  7.301700723574E-02 -2.108012915926E-01
C83  4.879668845139E-01  4.269829927643E-01  2.891987084074E-01
C84 -4.879668845139E-01 -7.301700723574E-02  2.108012915926E-01
H85 -4.789768787636E-01 -3.708531829328E-01 -1.255353802435E-01
H86  4.789768787636E-01  1.291468170672E-01 -3.744646197565E-01
H87  4.789768787636E-01  3.708531829328E-01  1.255353802435E-01
H88 -4.789768787636E-01 -1.291468170672E-01  3.744646197565E-01


#===END

data_OPT_STEP_26

_symmetry_space_group_name_H-M 'P 1'
_cell_length_a     17.56834323
_cell_length_b      6.96261580
_cell_length_c      6.10027708
_cell_angle_alpha   90.000000
_cell_angle_beta   89.913217
_cell_angle_gamma   90.000000

loop_
_atom_site_label
_atom_site_fract_x
_atom_site_fract_y
_atom_site_fract_z
C1  1.530540349644E-01 -3.915166858174E-01  4.898185247397E-01
C2 -1.530540349644E-01  1.084833141826E-01  1.018147526029E-02
C3 -1.530540349644E-01  3.915166858174E-01 -4.898185247397E-01
C4  1.530540349644E-01 -1.084833141826E-01 -1.018147526029E-02
H5  1.662384191245E-01 -3.004646933445E-01 -3.716919870241E-01
H6 -1.662384191245E-01  1.995353066555E-01 -1.283080129759E-01
H7 -1.662384191245E-01  3.004646933445E-01  3.716919870241E-01
H8  1.662384191245E-01 -1.995353066555E-01  1.283080129759E-01
C9  7.903303619132E-02 -3.950325143647E-01  4.126999632382E-01
C10 -7.903303619132E-02  1.049674856353E-01  8.730003676177E-02
C11 -7.903303619132E-02  3.950325143647E-01 -4.126999632382E-01
C12  7.903303619132E-02 -1.049674856353E-01 -8.730003676177E-02
H13  3.581053065053E-02 -3.110960589374E-01  4.959089309533E-01
H14 -3.581053065053E-02  1.889039410626E-01  4.091069046699E-03
H15 -3.581053065053E-02  3.110960589374E-01 -4.959089309533E-01
H16  3.581053065053E-02 -1.889039410626E-01 -4.091069046699E-03
C17  5.980424246170E-02  4.940710118397E-01  2.322625329180E-01
C18 -5.980424246170E-02 -5.928988160333E-03  2.677374670820E-01
C19 -5.980424246170E-02 -4.940710118397E-01 -2.322625329180E-01
C20  5.980424246170E-02  5.928988160333E-03 -2.677374670820E-01
H21  9.257844037269E-04  4.880639635667E-01  1.796199962118E-01
H22 -9.257844037269E-04 -1.193603643327E-02  3.203800037882E-01
H23 -9.257844037269E-04 -4.880639635667E-01 -1.796199962118E-01
H24  9.257844037270E-04  1.193603643327E-02 -3.203800037882E-01
C25  1.161099667271E-01  3.900223172341E-01  1.252120494660E-01
C26 -1.161099667271E-01 -1.099776827659E-01  3.747879505340E-01
C27 -1.161099667271E-01 -3.900223172341E-01 -1.252120494660E-01
C28  1.161099667271E-01  1.099776827659E-01 -3.747879505340E-01
H29  1.027485703318E-01  3.027256393389E-01 -1.686696461100E-02
H30 -1.027485703318E-01 -1.972743606611E-01 -4.831330353890E-01
H31 -1.027485703318E-01 -3.027256393389E-01  1.686696461100E-02
H32  1.027485703318E-01  1.972743606611E-01  4.831330353890E-01
C33  1.902674810031E-01  3.933030376870E-01  2.026307658789E-01
C34 -1.902674810031E-01 -1.066969623130E-01  2.973692341211E-01
C35 -1.902674810031E-01 -3.933030376870E-01 -2.026307658789E-01
C36  1.902674810031E-01  1.066969623130E-01 -2.973692341211E-01
H37  2.328546782159E-01  3.078283627513E-01  1.199139122476E-01
H38 -2.328546782159E-01 -1.921716372487E-01  3.800860877524E-01
H39 -2.328546782159E-01 -3.078283627513E-01 -1.199139122476E-01
H40  2.328546782159E-01  1.921716372487E-01 -3.800860877524E-01
C41  2.100392104727E-01 -4.999741547404E-01  3.879301686977E-01
C42 -2.100392104727E-01  2.584525964192E-05  1.120698313023E-01
C43 -2.100392104727E-01  4.999741547404E-01 -3.879301686977E-01
C44  2.100392104727E-01 -2.584525964208E-05 -1.120698313023E-01
C45  2.883722118731E-01 -4.989503303869E-01  4.741526325430E-01
C46 -2.883722118731E-01  1.049669613086E-03  2.584736745702E-02
C47 -2.883722118731E-01  4.989503303869E-01 -4.741526325430E-01
C48  2.883722118731E-01 -1.049669613086E-03 -2.584736745702E-02
C49  3.021854117821E-01 -4.378724038749E-01 -3.059170546206E-01
C50 -3.021854117821E-01  6.212759612508E-02 -1.940829453794E-01
C51 -3.021854117821E-01  4.378724038749E-01  3.059170546206E-01
C52  3.021854117821E-01 -6.212759612508E-02  1.940829453794E-01
H53  2.545469669122E-01 -4.075138321954E-01 -1.984593258875E-01
H54 -2.545469669122E-01  9.248616780456E-02 -3.015406741125E-01
H55 -2.545469669122E-01  4.075138321954E-01  1.984593258875E-01
H56  2.545469669122E-01 -9.248616780456E-02  3.015406741125E-01
C57  3.740272889035E-01 -4.169167868168E-01 -2.275879088797E-01
C58 -3.740272889035E-01  8.308321318319E-02 -2.724120911203E-01
C59 -3.740272889035E-01  4.169167868168E-01  2.275879088797E-01
C60  3.740272889035E-01 -8.308321318319E-02  2.724120911203E-01
H61  3.831497272895E-01 -3.661458612146E-01 -6.163896991039E-02
H62 -3.831497272895E-01  1.338541387854E-01 -4.383610300896E-01
H63 -3.831497272895E-01  3.661458612146E-01  6.163896991039E-02
H64  3.831497272895E-01 -1.338541387854E-01  4.383610300896E-01
C65  4.383472393784E-01 -4.573476299821E-01 -3.611888899345E-01
C66 -4.383472393784E-01  4.265237001790E-02 -1.388111100655E-01
C67 -4.383472393784E-01  4.573476299821E-01  3.611888899345E-01
C68  4.383472393784E-01 -4.265237001790E-02  1.388111100655E-01
C69  4.253378507103E-01  4.699641521940E-01  4.221925692267E-01
C70 -4.253378507103E-01 -3.003584780596E-02  7.780743077335E-02
C71 -4.253378507103E-01 -4.699641521940E-01 -4.221925692267E-01
C72  4.253378507103E-01  3.003584780596E-02 -7.780743077335E-02
C73  3.494489541936E-01  4.498484983804E-01  3.468044935132E-01
C74 -3.494489541936E-01 -5.015150161965E-02  1.531955064868E-01
C75 -3.494489541936E-01 -4.498484983804E-01 -3.468044935132E-01
C76  3.494489541936E-01  5.015150161965E-02 -1.531955064868E-01
H77  3.413453537057E-01  3.995965429225E-01  1.801754052489E-01
H78 -3.413453537057E-01 -1.004034570775E-01  3.198245947511E-01
H79 -3.413453537057E-01 -3.995965429225E-01 -1.801754052489E-01
H80  3.413453537057E-01  1.004034570775E-01 -3.198245947511E-01
C81 -4.875854678313E-01 -4.276759338351E-01 -2.886421672878E-01
C82  4.875854678313E-01  7.232406616485E-02 -2.113578327122E-01
C83  4.875854678313E-01  4.276759338351E-01  2.886421672878E-01
C84 -4.875854678313E-01 -7.232406616485E-02  2.113578327122E-01
H85 -4.781901857356E-01 -3.701906979176E-01 -1.254610335182E-01
H86  4.781901857356E-01  1.298093020824E-01 -3.745389664818E-01
H87  4.781901857356E-01  3.701906979176E-01  1.254610335182E-01
H88 -4.781901857356E-01 -1.298093020824E-01  3.745389664818E-01


#===END

data_OPT_STEP_27

_symmetry_space_group_name_H-M 'P 1'
_cell_length_a     17.64376630
_cell_length_b      6.90591821
_cell_length_c      6.09112040
_cell_angle_alpha   90.000000
_cell_angle_beta   90.574310
_cell_angle_gamma   90.000000

loop_
_atom_site_label
_atom_site_fract_x
_atom_site_fract_y
_atom_site_fract_z
C1  1.540619296987E-01 -3.934665051792E-01  4.932657468267E-01
C2 -1.540619296987E-01  1.065334948208E-01  6.734253173334E-03
C3 -1.540619296987E-01  3.934665051792E-01 -4.932657468267E-01
C4  1.540619296987E-01 -1.065334948208E-01 -6.734253173334E-03
H5  1.672060977737E-01 -3.049345543042E-01 -3.647558744431E-01
H6 -1.672060977737E-01  1.950654456958E-01 -1.352441255569E-01
H7 -1.672060977737E-01  3.049345543042E-01  3.647558744431E-01
H8  1.672060977737E-01 -1.950654456958E-01  1.352441255569E-01
C9  8.022652359672E-02 -3.966512106776E-01  4.145628149310E-01
C10 -8.022652359672E-02  1.033487893224E-01  8.543718506904E-02
C11 -8.022652359672E-02  3.966512106776E-01 -4.145628149310E-01
C12  8.022652359672E-02 -1.033487893224E-01 -8.543718506904E-02
H13  3.706531342241E-02 -3.142218206339E-01  4.988187363819E-01
H14 -3.706531342241E-02  1.857781793661E-01  1.181263618064E-03
H15 -3.706531342241E-02  3.142218206339E-01 -4.988187363819E-01
H16  3.706531342241E-02 -1.857781793661E-01 -1.181263618064E-03
C17  6.080526640123E-02  4.937659246297E-01  2.319175149639E-01
C18 -6.080526640123E-02 -6.234075370269E-03  2.680824850361E-01
C19 -6.080526640123E-02 -4.937659246297E-01 -2.319175149639E-01
C20  6.080526640123E-02  6.234075370269E-03 -2.680824850361E-01
H21  2.176251024408E-03  4.896827903544E-01  1.770883557004E-01
H22 -2.176251024408E-03 -1.031720964560E-02  3.229116442996E-01
H23 -2.176251024408E-03 -4.896827903544E-01 -1.770883557004E-01
H24  2.176251024408E-03  1.031720964560E-02 -3.229116442996E-01
C25  1.167204349166E-01  3.911660894035E-01  1.236375958707E-01
C26 -1.167204349166E-01 -1.088339105965E-01  3.763624041293E-01
C27 -1.167204349166E-01 -3.911660894035E-01 -1.236375958707E-01
C28  1.167204349166E-01  1.088339105965E-01 -3.763624041293E-01
H29  1.030526952129E-01  3.038501789017E-01 -1.923283263012E-02
H30 -1.030526952129E-01 -1.961498210983E-01 -4.807671673699E-01
H31 -1.030526952129E-01 -3.038501789017E-01  1.923283263012E-02
H32  1.030526952129E-01  1.961498210983E-01  4.807671673699E-01
C33  1.907612189686E-01  3.945416582416E-01  2.019226530815E-01
C34 -1.907612189686E-01 -1.054583417584E-01  2.980773469185E-01
C35 -1.907612189686E-01 -3.945416582416E-01 -2.019226530815E-01
C36  1.907612189686E-01  1.054583417584E-01 -2.980773469185E-01
H37  2.331231194644E-01  3.104190318972E-01  1.188711453393E-01
H38 -2.331231194644E-01 -1.895809681028E-01  3.811288546607E-01
H39 -2.331231194644E-01 -3.104190318972E-01 -1.188711453393E-01
H40  2.331231194644E-01  1.895809681028E-01 -3.811288546607E-01
C41  2.107782084789E-01  4.999190553234E-01  3.892872691870E-01
C42 -2.107782084789E-01 -8.094467664192E-05  1.107127308130E-01
C43 -2.107782084789E-01 -4.999190553234E-01 -3.892872691870E-01
C44  2.107782084789E-01  8.094467664175E-05 -1.107127308130E-01
C45  2.891836752278E-01 -4.989904632015E-01  4.753808913852E-01
C46 -2.891836752278E-01  1.009536798485E-03  2.461910861481E-02
C47 -2.891836752278E-01  4.989904632015E-01 -4.753808913852E-01
C48  2.891836752278E-01 -1.009536798485E-03 -2.461910861481E-02
C49  3.039455471014E-01 -4.371477330464E-01 -3.046453655249E-01
C50 -3.039455471014E-01  6.285226695356E-02 -1.953546344751E-01
C51 -3.039455471014E-01  4.371477330464E-01  3.046453655249E-01
C52  3.039455471014E-01 -6.285226695356E-02  1.953546344751E-01
H53  2.570580388523E-01 -4.046760286664E-01 -1.972168432511E-01
H54 -2.570580388523E-01  9.532397133357E-02 -3.027831567489E-01
H55 -2.570580388523E-01  4.046760286664E-01  1.972168432511E-01
H56  2.570580388523E-01 -9.532397133357E-02  3.027831567489E-01
C57  3.758371282200E-01 -4.174668267765E-01 -2.260233617282E-01
C58 -3.758371282200E-01  8.253317322355E-02 -2.739766382718E-01
C59 -3.758371282200E-01  4.174668267765E-01  2.260233617282E-01
C60  3.758371282200E-01 -8.253317322355E-02  2.739766382718E-01
H61  3.859047907699E-01 -3.667213342006E-01 -5.986459907139E-02
H62 -3.859047907699E-01  1.332786657994E-01 -4.401354009286E-01
H63 -3.859047907699E-01  3.667213342006E-01  5.986459907139E-02
H64  3.859047907699E-01 -1.332786657994E-01  4.401354009286E-01
C65  4.392559302903E-01 -4.583629704177E-01 -3.600914542898E-01
C66 -4.392559302903E-01  4.163702958234E-02 -1.399085457102E-01
C67 -4.392559302903E-01  4.583629704177E-01  3.600914542898E-01
C68  4.392559302903E-01 -4.163702958234E-02  1.399085457102E-01
C69  4.253257605315E-01  4.675391803218E-01  4.233917082265E-01
C70 -4.253257605315E-01 -3.246081967824E-02  7.660829177348E-02
C71 -4.253257605315E-01 -4.675391803218E-01 -4.233917082265E-01
C72  4.253257605315E-01  3.246081967824E-02 -7.660829177348E-02
C73  3.494211294090E-01  4.488397054967E-01  3.476787071700E-01
C74 -3.494211294090E-01 -5.116029450332E-02  1.523212928300E-01
C75 -3.494211294090E-01 -4.488397054967E-01 -3.476787071700E-01
C76  3.494211294090E-01  5.116029450332E-02 -1.523212928300E-01
H77  3.405910930133E-01  4.004481643337E-01  1.802448067635E-01
H78 -3.405910930133E-01 -9.955183566626E-02  3.197551932365E-01
H79 -3.405910930133E-01 -4.004481643337E-01 -1.802448067635E-01
H80  3.405910930133E-01  9.955183566626E-02 -3.197551932365E-01
C81 -4.866996393927E-01 -4.274931172011E-01 -2.881894160622E-01
C82  4.866996393926E-01  7.250688279891E-02 -2.118105839378E-01
C83  4.866996393926E-01  4.274931172011E-01  2.881894160622E-01
C84 -4.866996393926E-01 -7.250688279891E-02  2.118105839378E-01
H85 -4.764860531663E-01 -3.725425331359E-01 -1.235437416806E-01
H86  4.764860531663E-01  1.274574668641E-01 -3.764562583194E-01
H87  4.764860531663E-01  3.725425331359E-01  1.235437416806E-01
H88 -4.764860531663E-01 -1.274574668641E-01  3.764562583194E-01


#===END

data_OPT_STEP_28

_symmetry_space_group_name_H-M 'P 1'
_cell_length_a     17.58653500
_cell_length_b      6.94625695
_cell_length_c      6.09954888
_cell_angle_alpha   90.000000
_cell_angle_beta   89.987460
_cell_angle_gamma   90.000000

loop_
_atom_site_label
_atom_site_fract_x
_atom_site_fract_y
_atom_site_fract_z
C1  1.533016571161E-01 -3.921315280078E-01  4.910383022456E-01
C2 -1.533016571161E-01  1.078684719922E-01  8.961697754418E-03
C3 -1.533016571161E-01  3.921315280078E-01 -4.910383022456E-01
C4  1.533016571161E-01 -1.078684719922E-01 -8.961697754418E-03
H5  1.663533436536E-01 -3.024240313444E-01 -3.689234912939E-01
H6 -1.663533436536E-01  1.975759686556E-01 -1.310765087061E-01
H7 -1.663533436536E-01  3.024240313444E-01  3.689234912939E-01
H8  1.663533436536E-01 -1.975759686556E-01  1.310765087061E-01
C9  7.941202294218E-02 -3.953438388045E-01  4.132301462848E-01
C10 -7.941202294218E-02  1.046561611955E-01  8.676985371524E-02
C11 -7.941202294218E-02  3.953438388045E-01 -4.132301462848E-01
C12  7.941202294218E-02 -1.046561611955E-01 -8.676985371524E-02
H13  3.615155767886E-02 -3.119221137091E-01  4.966541419985E-01
H14 -3.615155767886E-02  1.880778862909E-01  3.345858001462E-03
H15 -3.615155767886E-02  3.119221137091E-01 -4.966541419985E-01
H16  3.615155767886E-02 -1.880778862909E-01 -3.345858001462E-03
C17  6.025470035624E-02  4.943535122663E-01  2.321443407805E-01
C18 -6.025470035624E-02 -5.646487733732E-03  2.678556592195E-01
C19 -6.025470035624E-02 -4.943535122663E-01 -2.321443407805E-01
C20  6.025470035624E-02  5.646487733732E-03 -2.678556592195E-01
H21  1.519527953536E-03  4.892119432378E-01  1.784993421781E-01
H22 -1.519527953536E-03 -1.078805676219E-02  3.215006578219E-01
H23 -1.519527953536E-03 -4.892119432378E-01 -1.784993421781E-01
H24  1.519527953536E-03  1.078805676219E-02 -3.215006578219E-01
C25  1.165109001147E-01  3.910041963042E-01  1.246617652084E-01
C26 -1.165109001147E-01 -1.089958036958E-01  3.753382347916E-01
C27 -1.165109001147E-01 -3.910041963042E-01 -1.246617652084E-01
C28  1.165109001147E-01  1.089958036958E-01 -3.753382347916E-01
H29  1.031095177052E-01  3.038075935030E-01 -1.761652606208E-02
H30 -1.031095177052E-01 -1.961924064970E-01 -4.823834739379E-01
H31 -1.031095177052E-01 -3.038075935030E-01  1.761652606208E-02
H32  1.031095177052E-01  1.961924064970E-01  4.823834739379E-01
C33  1.905658591024E-01  3.940618746972E-01  2.025224727317E-01
C34 -1.905658591024E-01 -1.059381253028E-01  2.974775272683E-01
C35 -1.905658591024E-01 -3.940618746972E-01 -2.025224727317E-01
C36  1.905658591024E-01  1.059381253028E-01 -2.974775272683E-01
H37  2.331474788285E-01  3.091926467945E-01  1.198908977155E-01
H38 -2.331474788285E-01 -1.908073532055E-01  3.801091022845E-01
H39 -2.331474788285E-01 -3.091926467945E-01 -1.198908977155E-01
H40  2.331474788285E-01  1.908073532055E-01 -3.801091022845E-01
C41  2.102743233871E-01 -4.998605227772E-01  3.884627886270E-01
C42 -2.102743233871E-01  1.394772227640E-04  1.115372113730E-01
C43 -2.102743233871E-01  4.998605227772E-01 -3.884627886270E-01
C44  2.102743233871E-01 -1.394772227641E-04 -1.115372113730E-01
C45  2.885853009452E-01 -4.990151503636E-01  4.746839455857E-01
C46 -2.885853009452E-01  9.848496363805E-04  2.531605441428E-02
C47 -2.885853009452E-01  4.990151503636E-01 -4.746839455857E-01
C48  2.885853009452E-01 -9.848496363807E-04 -2.531605441428E-02
C49  3.025344236118E-01 -4.376003101654E-01 -3.055270154858E-01
C50 -3.025344236118E-01  6.239968983458E-02 -1.944729845142E-01
C51 -3.025344236118E-01  4.376003101654E-01  3.055270154858E-01
C52  3.025344236118E-01 -6.239968983458E-02  1.944729845142E-01
H53  2.550687376395E-01 -4.064968231098E-01 -1.980703556626E-01
H54 -2.550687376395E-01  9.350317689023E-02 -3.019296443374E-01
H55 -2.550687376395E-01  4.064968231098E-01  1.980703556626E-01
H56  2.550687376395E-01 -9.350317689023E-02  3.019296443374E-01
C57  3.743618729762E-01 -4.167943008299E-01 -2.272797002691E-01
C58 -3.743618729762E-01  8.320569917006E-02 -2.727202997309E-01
C59 -3.743618729762E-01  4.167943008299E-01  2.272797002691E-01
C60  3.743618729762E-01 -8.320569917006E-02  2.727202997309E-01
H61  3.837676077312E-01 -3.658388225855E-01 -6.143703636671E-02
H62 -3.837676077312E-01  1.341611774145E-01 -4.385629636333E-01
H63 -3.837676077312E-01  3.658388225855E-01  6.143703636671E-02
H64  3.837676077312E-01 -1.341611774145E-01  4.385629636333E-01
C65  4.385095932144E-01 -4.575186616842E-01 -3.609560879447E-01
C66 -4.385095932144E-01  4.248133831583E-02 -1.390439120553E-01
C67 -4.385095932144E-01  4.575186616842E-01  3.609560879447E-01
C68  4.385095932144E-01 -4.248133831583E-02  1.390439120553E-01
C69  4.253690493794E-01  4.686053698302E-01  4.228987794131E-01
C70 -4.253690493794E-01 -3.139463016976E-02  7.710122058687E-02
C71 -4.253690493794E-01 -4.686053698302E-01 -4.228987794131E-01
C72  4.253690493794E-01  3.139463016976E-02 -7.710122058687E-02
C73  3.495057502396E-01  4.492670794921E-01  3.473230515270E-01
C74 -3.495057502396E-01 -5.073292050792E-02  1.526769484730E-01
C75 -3.495057502396E-01 -4.492670794921E-01 -3.473230515270E-01
C76  3.495057502396E-01  5.073292050792E-02 -1.526769484730E-01
H77  3.412261990597E-01  3.999143142858E-01  1.804682215945E-01
H78 -3.412261990597E-01 -1.000856857142E-01  3.195317784055E-01
H79 -3.412261990597E-01 -3.999143142858E-01 -1.804682215945E-01
H80  3.412261990597E-01  1.000856857142E-01 -3.195317784055E-01
C81 -4.874641471523E-01 -4.271227096408E-01 -2.888292992821E-01
C82  4.874641471523E-01  7.287729035916E-02 -2.111707007179E-01
C83  4.874641471523E-01  4.271227096408E-01  2.888292992821E-01
C84 -4.874641471523E-01 -7.287729035916E-02  2.111707007179E-01
H85 -4.778640244432E-01 -3.711107619199E-01 -1.249511353465E-01
H86  4.778640244432E-01  1.288892380801E-01 -3.750488646535E-01
H87  4.778640244432E-01  3.711107619199E-01  1.249511353465E-01
H88 -4.778640244432E-01 -1.288892380801E-01  3.750488646535E-01


#===END

data_OPT_STEP_29

_symmetry_space_group_name_H-M 'P 1'
_cell_length_a     17.59999656
_cell_length_b      6.93561782
_cell_length_c      6.09654479
_cell_angle_alpha   90.000000
_cell_angle_beta   90.092314
_cell_angle_gamma   90.000000

loop_
_atom_site_label
_atom_site_fract_x
_atom_site_fract_y
_atom_site_fract_z
C1  1.533837876455E-01 -3.931436682779E-01  4.919776714735E-01
C2 -1.533837876455E-01  1.068563317221E-01  8.022328526519E-03
C3 -1.533837876455E-01  3.931436682779E-01 -4.919776714735E-01
C4  1.533837876455E-01 -1.068563317221E-01 -8.022328526519E-03
H5  1.663394086863E-01 -3.040703207424E-01 -3.670175227698E-01
H6 -1.663394086863E-01  1.959296792576E-01 -1.329824772302E-01
H7 -1.663394086863E-01  3.040703207424E-01  3.670175227698E-01
H8  1.663394086863E-01 -1.959296792576E-01  1.329824772302E-01
C9  7.952988080470E-02 -3.963958834546E-01  4.139259609474E-01
C10 -7.952988080470E-02  1.036041165454E-01  8.607403905256E-02
C11 -7.952988080470E-02  3.963958834546E-01 -4.139259609474E-01
C12  7.952988080470E-02 -1.036041165454E-01 -8.607403905256E-02
H13  3.623032569050E-02 -3.136656122926E-01  4.977925004767E-01
H14 -3.623032569050E-02  1.863343877074E-01  2.207499523290E-03
H15 -3.623032569050E-02  3.136656122926E-01 -4.977925004767E-01
H16  3.623032569050E-02 -1.863343877074E-01 -2.207499523290E-03
C17  6.051900022051E-02  4.946713688306E-01  2.312493962616E-01
C18 -6.051900022051E-02 -5.328631169409E-03  2.687506037384E-01
C19 -6.051900022051E-02 -4.946713688306E-01 -2.312493962616E-01
C20  6.051900022051E-02  5.328631169409E-03 -2.687506037384E-01
H21  1.800870486455E-03  4.895315906686E-01  1.774805100966E-01
H22 -1.800870486455E-03 -1.046840933144E-02  3.225194899034E-01
H23 -1.800870486455E-03 -4.895315906686E-01 -1.774805100966E-01
H24  1.800870486455E-03  1.046840933144E-02 -3.225194899034E-01
C25  1.168594308512E-01  3.924293951410E-01  1.226985034148E-01
C26 -1.168594308512E-01 -1.075706048590E-01  3.773014965852E-01
C27 -1.168594308512E-01 -3.924293951410E-01 -1.226985034148E-01
C28  1.168594308512E-01  1.075706048590E-01 -3.773014965852E-01
H29  1.035306094140E-01  3.059464795881E-01 -2.050314324356E-02
H30 -1.035306094140E-01 -1.940535204119E-01 -4.794968567564E-01
H31 -1.035306094140E-01 -3.059464795881E-01  2.050314324356E-02
H32  1.035306094140E-01  1.940535204119E-01  4.794968567564E-01
C33  1.908443534748E-01  3.952387463947E-01  2.010743113275E-01
C34 -1.908443534748E-01 -1.047612536053E-01  2.989256886725E-01
C35 -1.908443534748E-01 -3.952387463947E-01 -2.010743113275E-01
C36  1.908443534748E-01  1.047612536053E-01 -2.989256886725E-01
H37  2.334906632192E-01  3.111999180561E-01  1.173978149466E-01
H38 -2.334906632192E-01 -1.888000819439E-01  3.826021850534E-01
H39 -2.334906632192E-01 -3.111999180561E-01 -1.173978149466E-01
H40  2.334906632192E-01  1.888000819439E-01 -3.826021850534E-01
C41  2.104404223915E-01 -4.997727177042E-01  3.883844641263E-01
C42 -2.104404223915E-01  2.272822957825E-04  1.116155358737E-01
C43 -2.104404223915E-01  4.997727177042E-01 -3.883844641263E-01
C44  2.104404223915E-01 -2.272822957827E-04 -1.116155358737E-01
C45  2.887357882916E-01 -4.989765733636E-01  4.747436719436E-01
C46 -2.887357882916E-01  1.023426636355E-03  2.525632805640E-02
C47 -2.887357882916E-01  4.989765733636E-01 -4.747436719436E-01
C48  2.887357882916E-01 -1.023426636355E-03 -2.525632805640E-02
C49  3.028195031050E-01 -4.374232167151E-01 -3.053897632340E-01
C50 -3.028195031050E-01  6.257678328488E-02 -1.946102367660E-01
C51 -3.028195031050E-01  4.374232167151E-01  3.053897632340E-01
C52  3.028195031050E-01 -6.257678328488E-02  1.946102367660E-01
H53  2.554563429943E-01 -4.058025668471E-01 -1.980463827084E-01
H54 -2.554563429943E-01  9.419743315291E-02 -3.019536172916E-01
H55 -2.554563429943E-01  4.058025668471E-01  1.980463827084E-01
H56  2.554563429943E-01 -9.419743315291E-02  3.019536172916E-01
C57  3.746395006014E-01 -4.171900552007E-01 -2.268366946461E-01
C58 -3.746395006014E-01  8.280994479927E-02 -2.731633053539E-01
C59 -3.746395006014E-01  4.171900552007E-01  2.268366946461E-01
C60  3.746395006014E-01 -8.280994479927E-02  2.731633053539E-01
H61  3.841395907280E-01 -3.661288393552E-01 -6.095677003129E-02
H62 -3.841395907280E-01  1.338711606448E-01 -4.390432299687E-01
H63 -3.841395907280E-01  3.661288393552E-01  6.095677003129E-02
H64  3.841395907280E-01 -1.338711606448E-01  4.390432299687E-01
C65  4.386536985143E-01 -4.577980969597E-01 -3.606910297366E-01
C66 -4.386536985143E-01  4.220190304025E-02 -1.393089702634E-01
C67 -4.386536985143E-01  4.577980969597E-01  3.606910297366E-01
C68  4.386536985143E-01 -4.220190304025E-02  1.393089702634E-01
C69  4.253724807004E-01  4.686791224768E-01  4.228598251658E-01
C70 -4.253724807004E-01 -3.132087752320E-02  7.714017483424E-02
C71 -4.253724807004E-01 -4.686791224768E-01 -4.228598251658E-01
C72  4.253724807004E-01  3.132087752320E-02 -7.714017483424E-02
C73  3.495195036825E-01  4.488645369129E-01  3.474628136102E-01
C74 -3.495195036825E-01 -5.113546308707E-02  1.525371863898E-01
C75 -3.495195036825E-01 -4.488645369129E-01 -3.474628136102E-01
C76  3.495195036825E-01  5.113546308707E-02 -1.525371863898E-01
H77  3.411955988386E-01  3.995477394515E-01  1.804857791818E-01
H78 -3.411955988386E-01 -1.004522605485E-01  3.195142208182E-01
H79 -3.411955988386E-01 -3.995477394515E-01 -1.804857791818E-01
H80  3.411955988386E-01  1.004522605485E-01 -3.195142208182E-01
C81 -4.873279603064E-01 -4.273223032091E-01 -2.885790650898E-01
C82  4.873279603064E-01  7.267769679090E-02 -2.114209349102E-01
C83  4.873279603064E-01  4.273223032091E-01  2.885790650898E-01
C84 -4.873279603064E-01 -7.267769679090E-02  2.114209349102E-01
H85 -4.776404811747E-01 -3.715339433731E-01 -1.245055903114E-01
H86  4.776404811747E-01  1.284660566269E-01 -3.754944096886E-01
H87  4.776404811747E-01  3.715339433731E-01  1.245055903114E-01
H88 -4.776404811747E-01 -1.284660566269E-01  3.754944096886E-01


#===END

data_OPT_STEP_30

_symmetry_space_group_name_H-M 'P 1'
_cell_length_a     17.60889904
_cell_length_b      6.93356531
_cell_length_c      6.08333648
_cell_angle_alpha   90.000000
_cell_angle_beta   90.019397
_cell_angle_gamma   90.000000

loop_
_atom_site_label
_atom_site_fract_x
_atom_site_fract_y
_atom_site_fract_z
C1  1.532564980127E-01 -3.954757619868E-01  4.936921567947E-01
C2 -1.532564980127E-01  1.045242380132E-01  6.307843205301E-03
C3 -1.532564980127E-01  3.954757619868E-01 -4.936921567947E-01
C4  1.532564980127E-01 -1.045242380132E-01 -6.307843205301E-03
H5  1.658027589716E-01 -3.082996233261E-01 -3.629198019558E-01
H6 -1.658027589716E-01  1.917003766739E-01 -1.370801980442E-01
H7 -1.658027589716E-01  3.082996233261E-01  3.629198019558E-01
H8  1.658027589716E-01 -1.917003766739E-01  1.370801980442E-01
C9  7.956556070918E-02 -3.982948881494E-01  4.147628417553E-01
C10 -7.956556070918E-02  1.017051118506E-01  8.523715824473E-02
C11 -7.956556070918E-02  3.982948881494E-01 -4.147628417553E-01
C12  7.956556070918E-02 -1.017051118506E-01 -8.523715824473E-02
H13  3.602977847606E-02 -3.173171783000E-01  4.999631884296E-01
H14 -3.602977847606E-02  1.826828217000E-01  3.681157039539E-05
H15 -3.602977847606E-02  3.173171783000E-01 -4.999631884296E-01
H16  3.602977847606E-02 -1.826828217000E-01 -3.681157039546E-05
C17  6.100005943830E-02  4.953968887194E-01  2.292520437000E-01
C18 -6.100005943830E-02 -4.603111280590E-03  2.707479563000E-01
C19 -6.100005943830E-02 -4.953968887194E-01 -2.292520437000E-01
C20  6.100005943830E-02  4.603111280590E-03 -2.707479563000E-01
H21  2.313381689617E-03  4.901460784971E-01  1.753817946653E-01
H22 -2.313381689617E-03 -9.853921502887E-03  3.246182053347E-01
H23 -2.313381689617E-03 -4.901460784971E-01 -1.753817946653E-01
H24  2.313381689617E-03  9.853921502887E-03 -3.246182053347E-01
C25  1.177026134394E-01  3.958859912027E-01  1.182365975519E-01
C26 -1.177026134394E-01 -1.041140087973E-01  3.817634024481E-01
C27 -1.177026134394E-01 -3.958859912027E-01 -1.182365975519E-01
C28  1.177026134394E-01  1.041140087973E-01 -3.817634024481E-01
H29  1.048358233820E-01  3.124383178228E-01 -2.820038614840E-02
H30 -1.048358233820E-01 -1.875616821772E-01 -4.717996138516E-01
H31 -1.048358233820E-01 -3.124383178228E-01  2.820038614840E-02
H32  1.048358233820E-01  1.875616821772E-01  4.717996138516E-01
C33  1.915312151663E-01  3.983498221345E-01  1.974227940486E-01
C34 -1.915312151663E-01 -1.016501778655E-01  3.025772059514E-01
C35 -1.915312151663E-01 -3.983498221345E-01 -1.974227940486E-01
C36  1.915312151663E-01  1.016501778655E-01 -3.025772059514E-01
H37  2.344856068529E-01  3.167800518845E-01  1.110311702052E-01
H38 -2.344856068529E-01 -1.832199481155E-01  3.889688297948E-01
H39 -2.344856068529E-01 -3.167800518845E-01 -1.110311702052E-01
H40  2.344856068529E-01  1.832199481155E-01 -3.889688297948E-01
C41  2.106412982182E-01 -4.997179538903E-01  3.880385473483E-01
C42 -2.106412982182E-01  2.820461096631E-04  1.119614526517E-01
C43 -2.106412982182E-01  4.997179538903E-01 -3.880385473483E-01
C44  2.106412982182E-01 -2.820461096633E-04 -1.119614526517E-01
C45  2.888289252749E-01 -4.993939005644E-01  4.749778646469E-01
C46 -2.888289252749E-01  6.060994355557E-04  2.502213535314E-02
C47 -2.888289252749E-01  4.993939005644E-01 -4.749778646469E-01
C48  2.888289252749E-01 -6.060994355560E-04 -2.502213535314E-02
C49  3.028462101779E-01 -4.378049376942E-01 -3.047325271141E-01
C50 -3.028462101779E-01  6.219506230579E-02 -1.952674728859E-01
C51 -3.028462101779E-01  4.378049376942E-01  3.047325271141E-01
C52  3.028462101779E-01 -6.219506230579E-02  1.952674728859E-01
H53  2.555156042278E-01 -4.066336147411E-01 -1.968240663113E-01
H54 -2.555156042278E-01  9.336638525893E-02 -3.031759336887E-01
H55 -2.555156042278E-01  4.066336147411E-01  1.968240663113E-01
H56  2.555156042278E-01 -9.336638525894E-02  3.031759336887E-01
C57  3.746118178482E-01 -4.166116807180E-01 -2.264321678833E-01
C58 -3.746118178482E-01  8.338831928204E-02 -2.735678321167E-01
C59 -3.746118178482E-01  4.166116807180E-01  2.264321678833E-01
C60  3.746118178482E-01 -8.338831928204E-02  2.735678321167E-01
H61  3.840978751710E-01 -3.652042217493E-01 -6.038458500443E-02
H62 -3.840978751710E-01  1.347957782507E-01 -4.396154149956E-01
H63 -3.840978751710E-01  3.652042217493E-01  6.038458500443E-02
H64  3.840978751710E-01 -1.347957782507E-01  4.396154149956E-01
C65  4.386473283144E-01 -4.574577972692E-01 -3.604964014770E-01
C66 -4.386473283144E-01  4.254220273079E-02 -1.395035985230E-01
C67 -4.386473283144E-01  4.574577972692E-01  3.604964014770E-01
C68  4.386473283144E-01 -4.254220273079E-02  1.395035985230E-01
C69  4.254295204524E-01  4.683209386829E-01  4.229902527473E-01
C70 -4.254295204524E-01 -3.167906131706E-02  7.700974725275E-02
C71 -4.254295204524E-01 -4.683209386829E-01 -4.229902527473E-01
C72  4.254295204524E-01  3.167906131706E-02 -7.700974725275E-02
C73  3.496484728994E-01  4.482655574385E-01  3.475513133138E-01
C74 -3.496484728994E-01 -5.173444256151E-02  1.524486866862E-01
C75 -3.496484728994E-01 -4.482655574385E-01 -3.475513133138E-01
C76  3.496484728994E-01  5.173444256151E-02 -1.524486866862E-01
H77  3.414562038024E-01  3.990911132113E-01  1.801715264188E-01
H78 -3.414562038024E-01 -1.009088867887E-01  3.198284735812E-01
H79 -3.414562038024E-01 -3.990911132113E-01 -1.801715264188E-01
H80  3.414562038024E-01  1.009088867887E-01 -3.198284735812E-01
C81 -4.873936797932E-01 -4.264615764067E-01 -2.885547219194E-01
C82  4.873936797932E-01  7.353842359332E-02 -2.114452780806E-01
C83  4.873936797932E-01  4.264615764067E-01  2.885547219194E-01
C84 -4.873936797932E-01 -7.353842359332E-02  2.114452780806E-01
H85 -4.777426661073E-01 -3.703646478921E-01 -1.243051162136E-01
H86  4.777426661073E-01  1.296353521079E-01 -3.756948837864E-01
H87  4.777426661073E-01  3.703646478921E-01  1.243051162136E-01
H88 -4.777426661073E-01 -1.296353521079E-01  3.756948837864E-01


#===END

data_OPT_STEP_31

_symmetry_space_group_name_H-M 'P 1'
_cell_length_a     17.64961240
_cell_length_b      6.91168536
_cell_length_c      6.07589052
_cell_angle_alpha   90.000000
_cell_angle_beta   90.059809
_cell_angle_gamma   90.000000

loop_
_atom_site_label
_atom_site_fract_x
_atom_site_fract_y
_atom_site_fract_z
C1  1.536781082544E-01 -3.984190095030E-01  4.966097332434E-01
C2 -1.536781082544E-01  1.015809904970E-01  3.390266756584E-03
C3 -1.536781082544E-01  3.984190095030E-01 -4.966097332434E-01
C4  1.536781082544E-01 -1.015809904970E-01 -3.390266756584E-03
H5  1.659404542266E-01 -3.127166017971E-01 -3.580461950736E-01
H6 -1.659404542266E-01  1.872833982029E-01 -1.419538049264E-01
H7 -1.659404542266E-01  3.127166017971E-01  3.580461950736E-01
H8  1.659404542266E-01 -1.872833982029E-01  1.419538049264E-01
C9  8.020057261243E-02 -4.008206557179E-01  4.171271299920E-01
C10 -8.020057261243E-02  9.917934428210E-02  8.287287000800E-02
C11 -8.020057261243E-02  4.008206557179E-01 -4.171271299920E-01
C12  8.020057261243E-02 -9.917934428210E-02 -8.287287000800E-02
H13  3.667095658235E-02 -3.207630525299E-01 -4.972060862282E-01
H14 -3.667095658235E-02  1.792369474701E-01 -2.793913771790E-03
H15 -3.667095658235E-02  3.207630525299E-01  4.972060862282E-01
H16  3.667095658235E-02 -1.792369474701E-01  2.793913771790E-03
C17  6.192447234509E-02  4.949738405271E-01  2.293772786955E-01
C18 -6.192447234509E-02 -5.026159472929E-03  2.706227213045E-01
C19 -6.192447234509E-02 -4.949738405271E-01 -2.293772786955E-01
C20  6.192447234509E-02  5.026159472929E-03 -2.706227213045E-01
H21  3.456098449958E-03  4.906708132378E-01  1.742693252311E-01
H22 -3.456098449958E-03 -9.329186762246E-03  3.257306747689E-01
H23 -3.456098449958E-03 -4.906708132378E-01 -1.742693252311E-01
H24  3.456098449958E-03  9.329186762246E-03 -3.257306747689E-01
C25  1.186992115992E-01  3.971184561877E-01  1.168839122995E-01
C26 -1.186992115992E-01 -1.028815438123E-01  3.831160877005E-01
C27 -1.186992115992E-01 -3.971184561877E-01 -1.168839122995E-01
C28  1.186992115992E-01  1.028815438123E-01 -3.831160877005E-01
H29  1.061510625729E-01  3.163239061080E-01 -3.227548539103E-02
H30 -1.061510625729E-01 -1.836760938920E-01 -4.677245146090E-01
H31 -1.061510625729E-01 -3.163239061080E-01  3.227548539103E-02
H32  1.061510625729E-01  1.836760938920E-01  4.677245146090E-01
C33  1.923522333546E-01  3.997736107317E-01  1.961738469294E-01
C34 -1.923522333546E-01 -1.002263892683E-01  3.038261530706E-01
C35 -1.923522333546E-01 -3.997736107317E-01 -1.961738469294E-01
C36  1.923522333546E-01  1.002263892683E-01 -3.038261530706E-01
H37  2.353905661619E-01  3.195701424126E-01  1.077439611940E-01
H38 -2.353905661619E-01 -1.804298575874E-01  3.922560388060E-01
H39 -2.353905661619E-01 -3.195701424126E-01 -1.077439611940E-01
H40  2.353905661619E-01  1.804298575874E-01 -3.922560388060E-01
C41  2.111805382067E-01  4.993978583484E-01  3.892555602964E-01
C42 -2.111805382067E-01 -6.021416515814E-04  1.107444397036E-01
C43 -2.111805382067E-01 -4.993978583484E-01 -3.892555602964E-01
C44  2.111805382067E-01  6.021416515813E-04 -1.107444397036E-01
C45  2.892604052923E-01  4.999036892185E-01  4.760562717309E-01
C46 -2.892604052923E-01 -9.631078150445E-05  2.394372826910E-02
C47 -2.892604052923E-01 -4.999036892185E-01 -4.760562717309E-01
C48  2.892604052923E-01  9.631078150423E-05 -2.394372826910E-02
C49  3.034596040194E-01 -4.372851562922E-01 -3.039289518683E-01
C50 -3.034596040194E-01  6.271484370777E-02 -1.960710481317E-01
C51 -3.034596040194E-01  4.372851562922E-01  3.039289518683E-01
C52  3.034596040194E-01 -6.271484370777E-02  1.960710481317E-01
H53  2.563177847285E-01 -4.042276106838E-01 -1.963681880370E-01
H54 -2.563177847285E-01  9.577238931620E-02 -3.036318119630E-01
H55 -2.563177847285E-01  4.042276106838E-01  1.963681880370E-01
H56  2.563177847285E-01 -9.577238931620E-02  3.036318119630E-01
C57  3.751090234285E-01 -4.173233261844E-01 -2.252621067311E-01
C58 -3.751090234285E-01  8.267667381559E-02 -2.747378932689E-01
C59 -3.751090234285E-01  4.173233261844E-01  2.252621067311E-01
C60  3.751090234285E-01 -8.267667381559E-02  2.747378932689E-01
H61  3.846731734332E-01 -3.654606837490E-01 -5.921211029912E-02
H62 -3.846731734332E-01  1.345393162510E-01 -4.407878897009E-01
H63 -3.846731734332E-01  3.654606837490E-01  5.921211029912E-02
H64  3.846731734332E-01 -1.345393162510E-01  4.407878897009E-01
C65  4.389078691831E-01 -4.583024942498E-01 -3.596798714733E-01
C66 -4.389078691831E-01  4.169750575023E-02 -1.403201285268E-01
C67 -4.389078691831E-01  4.583024942498E-01  3.596798714732E-01
C68  4.389078691831E-01 -4.169750575024E-02  1.403201285268E-01
C69  4.255289247006E-01  4.685719272208E-01  4.231160603667E-01
C70 -4.255289247006E-01 -3.142807277918E-02  7.688393963335E-02
C71 -4.255289247006E-01 -4.685719272208E-01 -4.231160603667E-01
C72  4.255289247006E-01  3.142807277918E-02 -7.688393963335E-02
C73  3.498736815024E-01  4.478569754446E-01  3.481307615964E-01
C74 -3.498736815024E-01 -5.214302455537E-02  1.518692384036E-01
C75 -3.498736815024E-01 -4.478569754446E-01 -3.481307615964E-01
C76  3.498736815024E-01  5.214302455537E-02 -1.518692384036E-01
H77  3.417500460865E-01  3.987355894591E-01  1.804600396653E-01
H78 -3.417500460865E-01 -1.012644105409E-01  3.195399603347E-01
H79 -3.417500460865E-01 -3.987355894591E-01 -1.804600396653E-01
H80  3.417500460865E-01  1.012644105409E-01 -3.195399603347E-01
C81 -4.872345842609E-01 -4.278539600528E-01 -2.876381638054E-01
C82  4.872345842609E-01  7.214603994720E-02 -2.123618361946E-01
C83  4.872345842609E-01  4.278539600528E-01  2.876381638054E-01
C84 -4.872345842609E-01 -7.214603994720E-02  2.123618361946E-01
H85 -4.775302050599E-01 -3.706233787529E-01 -1.236704502495E-01
H86  4.775302050599E-01  1.293766212471E-01 -3.763295497505E-01
H87  4.775302050599E-01  3.706233787529E-01  1.236704502495E-01
H88 -4.775302050599E-01 -1.293766212471E-01  3.763295497505E-01


#===END

data_OPT_STEP_32

_symmetry_space_group_name_H-M 'P 1'
_cell_length_a     17.67406477
_cell_length_b      6.90795434
_cell_length_c      6.07494897
_cell_angle_alpha   90.000000
_cell_angle_beta   89.688360
_cell_angle_gamma   90.000000

loop_
_atom_site_label
_atom_site_fract_x
_atom_site_fract_y
_atom_site_fract_z
C1  1.539266644670E-01 -3.999546891577E-01  4.979122177108E-01
C2 -1.539266644670E-01  1.000453108423E-01  2.087782289207E-03
C3 -1.539266644670E-01  3.999546891577E-01 -4.979122177108E-01
C4  1.539266644670E-01 -1.000453108423E-01 -2.087782289207E-03
H5  1.657541886826E-01 -3.151303881318E-01 -3.560100490083E-01
H6 -1.657541886826E-01  1.848696118682E-01 -1.439899509917E-01
H7 -1.657541886826E-01  3.151303881318E-01  3.560100490083E-01
H8  1.657541886826E-01 -1.848696118682E-01  1.439899509917E-01
C9  8.070908515159E-02 -4.023522774069E-01  4.184815271634E-01
C10 -8.070908515159E-02  9.764772259306E-02  8.151847283662E-02
C11 -8.070908515159E-02  4.023522774069E-01 -4.184815271634E-01
C12  8.070908515159E-02 -9.764772259306E-02 -8.151847283662E-02
H13  3.702452735237E-02 -3.229643450365E-01 -4.957082164249E-01
H14 -3.702452735237E-02  1.770356549635E-01 -4.291783575116E-03
H15 -3.702452735237E-02  3.229643450365E-01  4.957082164249E-01
H16  3.702452735237E-02 -1.770356549635E-01  4.291783575116E-03
C17  6.312065139282E-02  4.958802374549E-01  2.287302574114E-01
C18 -6.312065139282E-02 -4.119762545134E-03  2.712697425886E-01
C19 -6.312065139282E-02 -4.958802374549E-01 -2.287302574114E-01
C20  6.312065139282E-02  4.119762545134E-03 -2.712697425886E-01
H21  4.900726942773E-03  4.919092586527E-01  1.730917901720E-01
H22 -4.900726942773E-03 -8.090741347262E-03  3.269082098280E-01
H23 -4.900726942773E-03 -4.919092586527E-01 -1.730917901720E-01
H24  4.900726942773E-03  8.090741347262E-03 -3.269082098280E-01
C25  1.202223343605E-01  3.999855102183E-01  1.148637631588E-01
C26 -1.202223343605E-01 -1.000144897817E-01  3.851362368412E-01
C27 -1.202223343605E-01 -3.999855102183E-01 -1.148637631588E-01
C28  1.202223343605E-01  1.000144897817E-01 -3.851362368412E-01
H29  1.081044252748E-01  3.208068143463E-01 -3.542415876125E-02
H30 -1.081044252748E-01 -1.791931856537E-01 -4.645758412387E-01
H31 -1.081044252748E-01 -3.208068143463E-01  3.542415876125E-02
H32  1.081044252748E-01  1.791931856537E-01  4.645758412387E-01
C33  1.934540858999E-01  4.015887573075E-01  1.952423259212E-01
C34 -1.934540858999E-01 -9.841124269254E-02  3.047576740788E-01
C35 -1.934540858999E-01 -4.015887573075E-01 -1.952423259212E-01
C36  1.934540858999E-01  9.841124269254E-02 -3.047576740788E-01
H37  2.366441061184E-01  3.221558157230E-01  1.060260268736E-01
H38 -2.366441061184E-01 -1.778441842770E-01  3.939739731264E-01
H39 -2.366441061184E-01 -3.221558157230E-01 -1.060260268736E-01
H40  2.366441061184E-01  1.778441842770E-01 -3.939739731264E-01
C41  2.117540457106E-01  4.996587881316E-01  3.893718315429E-01
C42 -2.117540457106E-01 -3.412118684167E-04  1.106281684571E-01
C43 -2.117540457106E-01 -4.996587881316E-01 -3.893718315429E-01
C44  2.117540457106E-01  3.412118684165E-04 -1.106281684571E-01
C45  2.895543673343E-01  4.997672339183E-01  4.763738984538E-01
C46 -2.895543673343E-01 -2.327660816697E-04  2.362610154615E-02
C47 -2.895543673343E-01 -4.997672339183E-01 -4.763738984538E-01
C48  2.895543673343E-01  2.327660816695E-04 -2.362610154615E-02
C49  3.033240884455E-01 -4.380979002063E-01 -3.033266274006E-01
C50 -3.033240884455E-01  6.190209979369E-02 -1.966733725994E-01
C51 -3.033240884455E-01  4.380979002063E-01  3.033266274006E-01
C52  3.033240884455E-01 -6.190209979369E-02  1.966733725994E-01
H53  2.560893259877E-01 -4.052487873933E-01 -1.954707706191E-01
H54 -2.560893259877E-01  9.475121260669E-02 -3.045292293809E-01
H55 -2.560893259877E-01  4.052487873933E-01  1.954707706191E-01
H56  2.560893259877E-01 -9.475121260669E-02  3.045292293809E-01
C57  3.747276060473E-01 -4.176906478904E-01 -2.249916865194E-01
C58 -3.747276060473E-01  8.230935210956E-02 -2.750083134806E-01
C59 -3.747276060473E-01  4.176906478904E-01  2.249916865194E-01
C60  3.747276060473E-01 -8.230935210956E-02  2.750083134806E-01
H61  3.840113523714E-01 -3.651236602246E-01 -5.925300616403E-02
H62 -3.840113523714E-01  1.348763397754E-01 -4.407469938360E-01
H63 -3.840113523714E-01  3.651236602246E-01  5.925300616403E-02
H64  3.840113523714E-01 -1.348763397754E-01  4.407469938360E-01
C65  4.387126535204E-01 -4.574809715085E-01 -3.599957315837E-01
C66 -4.387126535204E-01  4.251902849147E-02 -1.400042684163E-01
C67 -4.387126535204E-01  4.574809715085E-01  3.599957315837E-01
C68  4.387126535204E-01 -4.251902849147E-02  1.400042684163E-01
C69  4.257736091043E-01  4.690454133106E-01  4.230499395911E-01
C70 -4.257736091043E-01 -3.095458668944E-02  7.695006040892E-02
C71 -4.257736091043E-01 -4.690454133106E-01 -4.230499395911E-01
C72  4.257736091043E-01  3.095458668944E-02 -7.695006040892E-02
C73  3.503639676097E-01  4.476236780707E-01  3.484813439351E-01
C74 -3.503639676097E-01 -5.237632192930E-02  1.515186560649E-01
C75 -3.503639676097E-01 -4.476236780707E-01 -3.484813439351E-01
C76  3.503639676097E-01  5.237632192930E-02 -1.515186560649E-01
H77  3.426336206414E-01  3.981553446669E-01  1.809722904675E-01
H78 -3.426336206414E-01 -1.018446553331E-01  3.190277095325E-01
H79 -3.426336206414E-01 -3.981553446669E-01 -1.809722904675E-01
H80  3.426336206414E-01  1.018446553330E-01 -3.190277095325E-01
C81 -4.876586747460E-01 -4.275148040125E-01 -2.878153571614E-01
C82  4.876586747460E-01  7.248519598755E-02 -2.121846428386E-01
C83  4.876586747460E-01  4.275148040124E-01  2.878153571614E-01
C84 -4.876586747460E-01 -7.248519598755E-02  2.121846428386E-01
H85 -4.782606895882E-01 -3.703707225720E-01 -1.237641094909E-01
H86  4.782606895882E-01  1.296292774280E-01 -3.762358905091E-01
H87  4.782606895882E-01  3.703707225720E-01  1.237641094909E-01
H88 -4.782606895882E-01 -1.296292774280E-01  3.762358905091E-01


#===END

data_OPT_STEP_33

_symmetry_space_group_name_H-M 'P 1'
_cell_length_a     17.73763986
_cell_length_b      6.89706111
_cell_length_c      6.06235380
_cell_angle_alpha   90.000000
_cell_angle_beta   89.784045
_cell_angle_gamma   90.000000

loop_
_atom_site_label
_atom_site_fract_x
_atom_site_fract_y
_atom_site_fract_z
C1  1.549657963306E-01 -4.014128636289E-01  4.988651624729E-01
C2 -1.549657963306E-01  9.858713637107E-02  1.134837527071E-03
C3 -1.549657963306E-01  4.014128636289E-01 -4.988651624729E-01
C4  1.549657963306E-01 -9.858713637107E-02 -1.134837527071E-03
H5  1.665986377049E-01 -3.178722027118E-01 -3.536840705991E-01
H6 -1.665986377049E-01  1.821277972882E-01 -1.463159294009E-01
H7 -1.665986377049E-01  3.178722027118E-01  3.536840705991E-01
H8  1.665986377049E-01 -1.821277972882E-01  1.463159294009E-01
C9  8.196623406535E-02 -4.034295121674E-01  4.191700856499E-01
C10 -8.196623406535E-02  9.657048783261E-02  8.082991435010E-02
C11 -8.196623406535E-02  4.034295121674E-01 -4.191700856499E-01
C12  8.196623406535E-02 -9.657048783261E-02 -8.082991435010E-02
H13  3.829017630451E-02 -3.250702517806E-01 -4.939813437020E-01
H14 -3.829017630451E-02  1.749297482194E-01 -6.018656297963E-03
H15 -3.829017630451E-02  3.250702517806E-01  4.939813437020E-01
H16  3.829017630451E-02 -1.749297482194E-01  6.018656297963E-03
C17  6.448098009310E-02  4.958735990498E-01  2.281980479720E-01
C18 -6.448098009310E-02 -4.126400950235E-03  2.718019520280E-01
C19 -6.448098009310E-02 -4.958735990498E-01 -2.281980479720E-01
C20  6.448098009310E-02  4.126400950235E-03 -2.718019520280E-01
H21  6.471371242042E-03  4.925109537191E-01  1.720491384807E-01
H22 -6.471371242042E-03 -7.489046280904E-03  3.279508615193E-01
H23 -6.471371242042E-03 -4.925109537191E-01 -1.720491384807E-01
H24  6.471371242042E-03  7.489046280904E-03 -3.279508615193E-01
C25  1.213892186158E-01  4.007145279661E-01  1.135457789854E-01
C26 -1.213892186158E-01 -9.928547203393E-02  3.864542210146E-01
C27 -1.213892186158E-01 -4.007145279661E-01 -1.135457789854E-01
C28  1.213892186158E-01  9.928547203393E-02 -3.864542210146E-01
H29  1.093152516216E-01  3.222273598906E-01 -3.726446110946E-02
H30 -1.093152516216E-01 -1.777726401094E-01 -4.627355388905E-01
H31 -1.093152516216E-01 -3.222273598906E-01  3.726446110946E-02
H32  1.093152516216E-01  1.777726401094E-01  4.627355388905E-01
C33  1.943971227719E-01  4.022988283081E-01  1.939545871989E-01
C34 -1.943971227719E-01 -9.770117169192E-02  3.060454128011E-01
C35 -1.943971227719E-01 -4.022988283081E-01 -1.939545871989E-01
C36  1.943971227719E-01  9.770117169192E-02 -3.060454128011E-01
H37  2.375110650830E-01  3.241036022714E-01  1.031622700027E-01
H38 -2.375110650830E-01 -1.758963977286E-01  3.968377299973E-01
H39 -2.375110650830E-01 -3.241036022714E-01 -1.031622700027E-01
H40  2.375110650830E-01  1.758963977286E-01 -3.968377299973E-01
C41  2.126887914941E-01  4.992633072077E-01  3.891521380385E-01
C42 -2.126887914941E-01 -7.366927923312E-04  1.108478619615E-01
C43 -2.126887914941E-01 -4.992633072077E-01 -3.891521380385E-01
C44  2.126887914941E-01  7.366927923310E-04 -1.108478619615E-01
C45  2.902800276029E-01  4.992529155787E-01  4.763098146930E-01
C46 -2.902800276029E-01 -7.470844212938E-04  2.369018530704E-02
C47 -2.902800276029E-01 -4.992529155787E-01 -4.763098146930E-01
C48  2.902800276029E-01  7.470844212936E-04 -2.369018530704E-02
C49  3.041392801347E-01 -4.383815976494E-01 -3.029993597393E-01
C50 -3.041392801347E-01  6.161840235060E-02 -1.970006402607E-01
C51 -3.041392801347E-01  4.383815976494E-01  3.029993597393E-01
C52  3.041392801347E-01 -6.161840235060E-02  1.970006402607E-01
H53  2.571136173573E-01 -4.065424075837E-01 -1.944284107942E-01
H54 -2.571136173573E-01  9.345759241633E-02 -3.055715892058E-01
H55 -2.571136173573E-01  4.065424075837E-01  1.944284107942E-01
H56  2.571136173573E-01 -9.345759241633E-02  3.055715892058E-01
C57  3.753075248901E-01 -4.173590726857E-01 -2.247074485051E-01
C58 -3.753075248901E-01  8.264092731429E-02 -2.752925514949E-01
C59 -3.753075248901E-01  4.173590726857E-01  2.247074485051E-01
C60  3.753075248901E-01 -8.264092731429E-02  2.752925514949E-01
H61  3.845170723339E-01 -3.650862064418E-01 -5.845081703886E-02
H62 -3.845170723339E-01  1.349137935582E-01 -4.415491829611E-01
H63 -3.845170723339E-01  3.650862064418E-01  5.845081703886E-02
H64  3.845170723339E-01 -1.349137935582E-01  4.415491829611E-01
C65  4.390076218742E-01 -4.574600329748E-01 -3.597557195414E-01
C66 -4.390076218742E-01  4.253996702519E-02 -1.402442804586E-01
C67 -4.390076218742E-01  4.574600329748E-01  3.597557195414E-01
C68  4.390076218742E-01 -4.253996702519E-02  1.402442804586E-01
C69  4.260071706402E-01  4.682849302444E-01  4.231818163407E-01
C70 -4.260071706402E-01 -3.171506975557E-02  7.681818365931E-02
C71 -4.260071706402E-01 -4.682849302444E-01 -4.231818163407E-01
C72  4.260071706402E-01  3.171506975557E-02 -7.681818365931E-02
C73  3.508375850277E-01  4.468855022875E-01  3.483544582888E-01
C74 -3.508375850277E-01 -5.311449771253E-02  1.516455417112E-01
C75 -3.508375850277E-01 -4.468855022875E-01 -3.483544582888E-01
C76  3.508375850277E-01  5.311449771253E-02 -1.516455417112E-01
H77  3.432259641127E-01  3.975072483653E-01  1.803100260096E-01
H78 -3.432259641127E-01 -1.024927516347E-01  3.196899739904E-01
H79 -3.432259641127E-01 -3.975072483653E-01 -1.803100260096E-01
H80  3.432259641127E-01  1.024927516347E-01 -3.196899739904E-01
C81 -4.876000895531E-01 -4.265788867013E-01 -2.877702001753E-01
C82  4.876000895531E-01  7.342111329869E-02 -2.122297998247E-01
C83  4.876000895531E-01  4.265788867013E-01  2.877702001753E-01
C84 -4.876000895531E-01 -7.342111329869E-02  2.122297998247E-01
H85 -4.782306828376E-01 -3.687556103407E-01 -1.236123777934E-01
H86  4.782306828376E-01  1.312443896593E-01 -3.763876222066E-01
H87  4.782306828376E-01  3.687556103407E-01  1.236123777934E-01
H88 -4.782306828376E-01 -1.312443896593E-01  3.763876222066E-01


#===END

data_OPT_STEP_34

_symmetry_space_group_name_H-M 'P 1'
_cell_length_a     17.79571182
_cell_length_b      6.87536748
_cell_length_c      6.03281003
_cell_angle_alpha   90.000000
_cell_angle_beta   89.218437
_cell_angle_gamma   90.000000

loop_
_atom_site_label
_atom_site_fract_x
_atom_site_fract_y
_atom_site_fract_z
C1  1.556881029079E-01 -4.047233641269E-01 -4.987350586827E-01
C2 -1.556881029079E-01  9.527663587313E-02 -1.264941317343E-03
C3 -1.556881029079E-01  4.047233641269E-01  4.987350586827E-01
C4  1.556881029079E-01 -9.527663587313E-02  1.264941317343E-03
H5  1.662070921292E-01 -3.250130029832E-01 -3.472878929920E-01
H6 -1.662070921292E-01  1.749869970168E-01 -1.527121070080E-01
H7 -1.662070921292E-01  3.250130029832E-01  3.472878929920E-01
H8  1.662070921292E-01 -1.749869970168E-01  1.527121070080E-01
C9  8.322965867394E-02 -4.064993191986E-01  4.207527689384E-01
C10 -8.322965867394E-02  9.350068080143E-02  7.924723106161E-02
C11 -8.322965867394E-02  4.064993191986E-01 -4.207527689384E-01
C12  8.322965867394E-02 -9.350068080143E-02 -7.924723106161E-02
H13  3.903809352409E-02 -3.308150093878E-01 -4.895857810005E-01
H14 -3.903809352409E-02  1.691849906122E-01 -1.041421899951E-02
H15 -3.903809352409E-02  3.308150093878E-01  4.895857810005E-01
H16  3.903809352409E-02 -1.691849906122E-01  1.041421899951E-02
C17  6.679657376733E-02  4.957150900409E-01  2.262986500829E-01
C18 -6.679657376733E-02 -4.284909959076E-03  2.737013499171E-01
C19 -6.679657376733E-02 -4.957150900409E-01 -2.262986500829E-01
C20  6.679657376733E-02  4.284909959076E-03 -2.737013499171E-01
H21  9.246446789737E-03  4.928570056466E-01  1.694848940939E-01
H22 -9.246446789737E-03 -7.142994353372E-03  3.305151059061E-01
H23 -9.246446789737E-03 -4.928570056466E-01 -1.694848940939E-01
H24  9.246446789737E-03  7.142994353372E-03 -3.305151059061E-01
C25  1.241149500491E-01  4.029701564540E-01  1.093046318517E-01
C26 -1.241149500491E-01 -9.702984354603E-02  3.906953681483E-01
C27 -1.241149500491E-01 -4.029701564540E-01 -1.093046318517E-01
C28  1.241149500491E-01  9.702984354603E-02 -3.906953681483E-01
H29  1.129526571259E-01  3.278098200230E-01 -4.466114747765E-02
H30 -1.129526571259E-01 -1.721901799770E-01 -4.553388525223E-01
H31 -1.129526571259E-01 -3.278098200230E-01  4.466114747765E-02
H32  1.129526571259E-01  1.721901799770E-01  4.553388525223E-01
C33  1.966187430613E-01  4.048361798636E-01  1.901428411696E-01
C34 -1.966187430613E-01 -9.516382013642E-02  3.098571588304E-01
C35 -1.966187430613E-01 -4.048361798636E-01 -1.901428411696E-01
C36  1.966187430613E-01  9.516382013642E-02 -3.098571588304E-01
H37  2.398541559971E-01  3.275697406360E-01  9.840317373825E-02
H38 -2.398541559971E-01 -1.724302593640E-01  4.015968262617E-01
H39 -2.398541559971E-01 -3.275697406360E-01 -9.840317373825E-02
H40  2.398541559971E-01  1.724302593640E-01 -4.015968262617E-01
C41  2.139220960890E-01  4.985944178798E-01  3.888064100564E-01
C42 -2.139220960890E-01 -1.405582120245E-03  1.111935899436E-01
C43 -2.139220960890E-01 -4.985944178798E-01 -3.888064100564E-01
C44  2.139220960890E-01  1.405582120244E-03 -1.111935899436E-01
C45  2.909718651653E-01  4.986698433172E-01  4.764020531855E-01
C46 -2.909718651653E-01 -1.330156682833E-03  2.359794681450E-02
C47 -2.909718651653E-01 -4.986698433172E-01 -4.764020531855E-01
C48  2.909718651653E-01  1.330156682833E-03 -2.359794681450E-02
C49  3.041373462825E-01 -4.373669700009E-01 -3.023993238739E-01
C50 -3.041373462825E-01  6.263302999914E-02 -1.976006761261E-01
C51 -3.041373462825E-01  4.373669700009E-01  3.023993238739E-01
C52  3.041373462825E-01 -6.263302999914E-02  1.976006761261E-01
H53  2.570602543889E-01 -4.031367483305E-01 -1.939527056599E-01
H54 -2.570602543889E-01  9.686325166947E-02 -3.060472943401E-01
H55 -2.570602543889E-01  4.031367483305E-01  1.939527056599E-01
H56  2.570602543889E-01 -9.686325166947E-02  3.060472943401E-01
C57  3.748120859278E-01 -4.155924842356E-01 -2.240612185022E-01
C58 -3.748120859278E-01  8.440751576443E-02 -2.759387814978E-01
C59 -3.748120859278E-01  4.155924842356E-01  2.240612185022E-01
C60  3.748120859278E-01 -8.440751576443E-02  2.759387814978E-01
H61  3.833488321013E-01 -3.630340445940E-01 -5.706282017526E-02
H62 -3.833488321013E-01  1.369659554060E-01 -4.429371798247E-01
H63 -3.833488321013E-01  3.630340445940E-01  5.706282017526E-02
H64  3.833488321013E-01 -1.369659554060E-01  4.429371798247E-01
C65  4.387718251931E-01 -4.578613071933E-01 -3.587522295523E-01
C66 -4.387718251931E-01  4.213869280673E-02 -1.412477704477E-01
C67 -4.387718251931E-01  4.578613071933E-01  3.587522295523E-01
C68  4.387718251931E-01 -4.213869280673E-02  1.412477704477E-01
C69  4.265027512628E-01  4.672442198289E-01  4.232811028392E-01
C70 -4.265027512628E-01 -3.275578017114E-02  7.671889716084E-02
C71 -4.265027512628E-01 -4.672442198289E-01 -4.232811028392E-01
C72  4.265027512628E-01  3.275578017114E-02 -7.671889716084E-02
C73  3.517975422646E-01  4.454793635818E-01  3.483250522681E-01
C74 -3.517975422646E-01 -5.452063641823E-02  1.516749477319E-01
C75 -3.517975422646E-01 -4.454793635818E-01 -3.483250522681E-01
C76  3.517975422646E-01  5.452063641823E-02 -1.516749477319E-01
H77  3.448691677034E-01  3.949830465196E-01  1.798518724090E-01
H78 -3.448691677034E-01 -1.050169534804E-01  3.201481275910E-01
H79 -3.448691677034E-01 -3.949830465196E-01 -1.798518724090E-01
H80  3.448691677034E-01  1.050169534804E-01 -3.201481275910E-01
C81 -4.883356824835E-01 -4.249335957243E-01 -2.873707495499E-01
C82  4.883356824835E-01  7.506640427566E-02 -2.126292504501E-01
C83  4.883356824835E-01  4.249335957243E-01  2.873707495499E-01
C84 -4.883356824835E-01 -7.506640427566E-02  2.126292504501E-01
H85 -4.795396773515E-01 -3.677843954816E-01 -1.220257916397E-01
H86  4.795396773515E-01  1.322156045184E-01 -3.779742083603E-01
H87  4.795396773515E-01  3.677843954816E-01  1.220257916397E-01
H88 -4.795396773515E-01 -1.322156045184E-01  3.779742083603E-01


#===END

data_OPT_STEP_35

_symmetry_space_group_name_H-M 'P 1'
_cell_length_a     17.82211581
_cell_length_b      6.87252579
_cell_length_c      6.02641133
_cell_angle_alpha   90.000000
_cell_angle_beta   89.181739
_cell_angle_gamma   90.000000

loop_
_atom_site_label
_atom_site_fract_x
_atom_site_fract_y
_atom_site_fract_z
C1  1.560798635628E-01 -4.058425579887E-01 -4.974463112053E-01
C2 -1.560798635628E-01  9.415744201127E-02 -2.553688794665E-03
C3 -1.560798635628E-01  4.058425579887E-01  4.974463112053E-01
C4  1.560798635628E-01 -9.415744201127E-02  2.553688794665E-03
H5  1.665280477833E-01 -3.255527285204E-01 -3.466932370445E-01
H6 -1.665280477833E-01  1.744472714796E-01 -1.533067629555E-01
H7 -1.665280477833E-01  3.255527285204E-01  3.466932370445E-01
H8  1.665280477833E-01 -1.744472714796E-01  1.533067629555E-01
C9  8.374678787336E-02 -4.078639052603E-01  4.219569441385E-01
C10 -8.374678787336E-02  9.213609473972E-02  7.804305586153E-02
C11 -8.374678787336E-02  4.078639052603E-01 -4.219569441385E-01
C12  8.374678787336E-02 -9.213609473972E-02 -7.804305586153E-02
H13  3.950816002618E-02 -3.327865401548E-01 -4.875175448662E-01
H14 -3.950816002618E-02  1.672134598452E-01 -1.248245513377E-02
H15 -3.950816002618E-02  3.327865401548E-01  4.875175448662E-01
H16  3.950816002618E-02 -1.672134598452E-01  1.248245513377E-02
C17  6.741749933562E-02  4.944760167841E-01  2.274389932553E-01
C18 -6.741749933562E-02 -5.523983215879E-03  2.725610067447E-01
C19 -6.741749933562E-02 -4.944760167841E-01 -2.274389932553E-01
C20  6.741749933562E-02  5.523983215879E-03 -2.725610067447E-01
H21  1.010067919969E-02  4.920277945569E-01  1.696126106653E-01
H22 -1.010067919969E-02 -7.972205443054E-03  3.303873893347E-01
H23 -1.010067919969E-02 -4.920277945569E-01 -1.696126106653E-01
H24  1.010067919969E-02  7.972205443054E-03 -3.303873893347E-01
C25  1.248188378036E-01  4.028892897547E-01  1.096342976453E-01
C26 -1.248188378036E-01 -9.711071024530E-02  3.903657023547E-01
C27 -1.248188378036E-01 -4.028892897547E-01 -1.096342976453E-01
C28  1.248188378036E-01  9.711071024530E-02 -3.903657023547E-01
H29  1.138099742246E-01  3.280775253729E-01 -4.468981528821E-02
H30 -1.138099742246E-01 -1.719224746271E-01 -4.553101847118E-01
H31 -1.138099742246E-01 -3.280775253729E-01  4.468981528821E-02
H32  1.138099742246E-01  1.719224746271E-01  4.553101847118E-01
C33  1.972581930203E-01  4.052688964820E-01  1.903119812955E-01
C34 -1.972581930203E-01 -9.473110351799E-02  3.096880187045E-01
C35 -1.972581930203E-01 -4.052688964820E-01 -1.903119812955E-01
C36  1.972581930203E-01  9.473110351799E-02 -3.096880187045E-01
H37  2.406999809717E-01  3.298264459554E-01  9.705729323191E-02
H38 -2.406999809717E-01 -1.701735540446E-01  4.029427067681E-01
H39 -2.406999809717E-01 -3.298264459554E-01 -9.705729323191E-02
H40  2.406999809717E-01  1.701735540446E-01 -4.029427067681E-01
C41  2.143672466964E-01  4.984621233700E-01  3.894137965066E-01
C42 -2.143672466964E-01 -1.537876629959E-03  1.105862034934E-01
C43 -2.143672466964E-01 -4.984621233700E-01 -3.894137965066E-01
C44  2.143672466964E-01  1.537876629959E-03 -1.105862034934E-01
C45  2.913145406589E-01  4.994106517321E-01  4.764411511733E-01
C46 -2.913145406589E-01 -5.893482678979E-04  2.355884882671E-02
C47 -2.913145406589E-01 -4.994106517321E-01 -4.764411511733E-01
C48  2.913145406589E-01  5.893482678977E-04 -2.355884882671E-02
C49  3.044476391991E-01 -4.371624240664E-01 -3.018403839943E-01
C50 -3.044476391991E-01  6.283757593362E-02 -1.981596160057E-01
C51 -3.044476391991E-01  4.371624240664E-01  3.018403839943E-01
C52  3.044476391991E-01 -6.283757593362E-02  1.981596160057E-01
H53  2.574346633191E-01 -4.038495900944E-01 -1.926708429579E-01
H54 -2.574346633191E-01  9.615040990564E-02 -3.073291570421E-01
H55 -2.574346633191E-01  4.038495900944E-01  1.926708429579E-01
H56  2.574346633191E-01 -9.615040990564E-02  3.073291570421E-01
C57  3.750093957758E-01 -4.159254646559E-01 -2.232432109863E-01
C58 -3.750093957758E-01  8.407453534409E-02 -2.767567890137E-01
C59 -3.750093957758E-01  4.159254646559E-01  2.232432109863E-01
C60  3.750093957758E-01 -8.407453534409E-02  2.767567890137E-01
H61  3.833754242019E-01 -3.634889344488E-01 -5.584775160524E-02
H62 -3.833754242019E-01  1.365110655512E-01 -4.441522483948E-01
H63 -3.833754242019E-01  3.634889344488E-01  5.584775160524E-02
H64  3.833754242019E-01 -1.365110655512E-01  4.441522483948E-01
C65  4.388650196745E-01 -4.569985296433E-01 -3.587947979668E-01
C66 -4.388650196745E-01  4.300147035672E-02 -1.412052020332E-01
C67 -4.388650196745E-01  4.569985296433E-01  3.587947979668E-01
C68  4.388650196745E-01 -4.300147035672E-02  1.412052020332E-01
C69  4.266183793893E-01  4.667401917309E-01  4.235096721381E-01
C70 -4.266183793893E-01 -3.325980826910E-02  7.649032786192E-02
C71 -4.266183793893E-01 -4.667401917309E-01 -4.235096721381E-01
C72  4.266183793893E-01  3.325980826910E-02 -7.649032786192E-02
C73  3.520309246920E-01  4.456657124453E-01  3.482378268137E-01
C74 -3.520309246920E-01 -5.433428755474E-02  1.517621731863E-01
C75 -3.520309246920E-01 -4.456657124453E-01 -3.482378268137E-01
C76  3.520309246920E-01  5.433428755474E-02 -1.517621731863E-01
H77  3.451745016062E-01  3.941867449597E-01  1.798137046314E-01
H78 -3.451745016062E-01 -1.058132550403E-01  3.201862953686E-01
H79 -3.451745016062E-01 -3.941867449597E-01 -1.798137046314E-01
H80  3.451745016062E-01  1.058132550403E-01 -3.201862953686E-01
C81 -4.883671589542E-01 -4.250203667283E-01 -2.870154570147E-01
C82  4.883671589542E-01  7.497963327168E-02 -2.129845429853E-01
C83  4.883671589542E-01  4.250203667283E-01  2.870154570147E-01
C84 -4.883671589542E-01 -7.497963327168E-02  2.129845429853E-01
H85 -4.796724500848E-01 -3.664989528304E-01 -1.220467211245E-01
H86  4.796724500848E-01  1.335010471696E-01 -3.779532788755E-01
H87  4.796724500848E-01  3.664989528304E-01  1.220467211245E-01
H88 -4.796724500848E-01 -1.335010471696E-01  3.779532788755E-01


#===END

data_OPT_STEP_36

_symmetry_space_group_name_H-M 'P 1'
_cell_length_a     17.81321725
_cell_length_b      6.89792473
_cell_length_c      6.03343341
_cell_angle_alpha   90.000000
_cell_angle_beta   89.067473
_cell_angle_gamma   90.000000

loop_
_atom_site_label
_atom_site_fract_x
_atom_site_fract_y
_atom_site_fract_z
C1  1.561288264360E-01 -4.059508230296E-01 -4.985174704491E-01
C2 -1.561288264360E-01  9.404917697044E-02 -1.482529550884E-03
C3 -1.561288264360E-01  4.059508230296E-01  4.985174704491E-01
C4  1.561288264360E-01 -9.404917697044E-02  1.482529550884E-03
H5  1.666211958998E-01 -3.264153041484E-01 -3.475680457238E-01
H6 -1.666211958998E-01  1.735846958516E-01 -1.524319542762E-01
H7 -1.666211958998E-01  3.264153041484E-01  3.475680457238E-01
H8  1.666211958998E-01 -1.735846958516E-01  1.524319542762E-01
C9  8.372765268721E-02 -4.079248947009E-01  4.215942755070E-01
C10 -8.372765268721E-02  9.207510529908E-02  7.840572449304E-02
C11 -8.372765268721E-02  4.079248947009E-01 -4.215942755070E-01
C12  8.372765268721E-02 -9.207510529908E-02 -7.840572449304E-02
H13  3.959376062597E-02 -3.327168036294E-01 -4.877476249823E-01
H14 -3.959376062597E-02  1.672831963706E-01 -1.225237501767E-02
H15 -3.959376062597E-02  3.327168036294E-01  4.877476249823E-01
H16  3.959376062597E-02 -1.672831963706E-01  1.225237501767E-02
C17  6.734832464665E-02  4.952406574721E-01  2.271288211562E-01
C18 -6.734832464665E-02 -4.759342527900E-03  2.728711788438E-01
C19 -6.734832464665E-02 -4.952406574721E-01 -2.271288211562E-01
C20  6.734832464665E-02  4.759342527899E-03 -2.728711788438E-01
H21  1.003858060542E-02  4.923559557427E-01  1.694579201431E-01
H22 -1.003858060542E-02 -7.644044257343E-03  3.305420798569E-01
H23 -1.003858060542E-02 -4.923559557427E-01 -1.694579201431E-01
H24  1.003858060542E-02  7.644044257343E-03 -3.305420798569E-01
C25  1.247357212474E-01  4.042447922470E-01  1.089593219187E-01
C26 -1.247357212474E-01 -9.575520775297E-02  3.910406780813E-01
C27 -1.247357212474E-01 -4.042447922470E-01 -1.089593219187E-01
C28  1.247357212474E-01  9.575520775297E-02 -3.910406780813E-01
H29  1.135684369820E-01  3.289498416454E-01 -4.451077028326E-02
H30 -1.135684369820E-01 -1.710501583546E-01 -4.554892297167E-01
H31 -1.135684369820E-01 -3.289498416454E-01  4.451077028326E-02
H32  1.135684369820E-01  1.710501583546E-01  4.554892297167E-01
C33  1.971324949108E-01  4.056021237687E-01  1.897920947637E-01
C34 -1.971324949108E-01 -9.439787623128E-02  3.102079052363E-01
C35 -1.971324949108E-01 -4.056021237687E-01 -1.897920947637E-01
C36  1.971324949108E-01  9.439787623128E-02 -3.102079052363E-01
H37  2.406686418087E-01  3.310652919120E-01  9.581773437786E-02
H38 -2.406686418087E-01 -1.689347080880E-01  4.041822656221E-01
H39 -2.406686418087E-01 -3.310652919120E-01 -9.581773437786E-02
H40  2.406686418087E-01  1.689347080880E-01 -4.041822656221E-01
C41  2.143223197331E-01  4.984756027149E-01  3.883664130546E-01
C42 -2.143223197331E-01 -1.524397285105E-03  1.116335869454E-01
C43 -2.143223197331E-01 -4.984756027149E-01 -3.883664130546E-01
C44  2.143223197331E-01  1.524397285104E-03 -1.116335869454E-01
C45  2.911844042712E-01  4.981412644661E-01  4.760230241874E-01
C46 -2.911844042712E-01 -1.858735533906E-03  2.397697581262E-02
C47 -2.911844042712E-01 -4.981412644661E-01 -4.760230241874E-01
C48  2.911844042712E-01  1.858735533905E-03 -2.397697581262E-02
C49  3.040998816595E-01 -4.369154282122E-01 -3.031801492442E-01
C50 -3.040998816595E-01  6.308457178780E-02 -1.968198507558E-01
C51 -3.040998816595E-01  4.369154282122E-01  3.031801492442E-01
C52  3.040998816595E-01 -6.308457178780E-02  1.968198507558E-01
H53  2.569328563070E-01 -4.037175182340E-01 -1.942157199676E-01
H54 -2.569328563070E-01  9.628248176600E-02 -3.057842800324E-01
H55 -2.569328563070E-01  4.037175182340E-01  1.942157199676E-01
H56  2.569328563070E-01 -9.628248176600E-02  3.057842800324E-01
C57  3.746098032888E-01 -4.163461883822E-01 -2.240420346015E-01
C58 -3.746098032888E-01  8.365381161783E-02 -2.759579653985E-01
C59 -3.746098032888E-01  4.163461883822E-01  2.240420346015E-01
C60  3.746098032888E-01 -8.365381161783E-02  2.759579653985E-01
H61  3.827838618042E-01 -3.638259839850E-01 -5.675565486597E-02
H62 -3.827838618042E-01  1.361740160150E-01 -4.432443451340E-01
H63 -3.827838618042E-01  3.638259839850E-01  5.675565486597E-02
H64  3.827838618042E-01 -1.361740160150E-01  4.432443451340E-01
C65  4.386584791278E-01 -4.578291179459E-01 -3.589368667908E-01
C66 -4.386584791278E-01  4.217088205407E-02 -1.410631332092E-01
C67 -4.386584791278E-01  4.578291179459E-01  3.589368667908E-01
C68  4.386584791278E-01 -4.217088205407E-02  1.410631332092E-01
C69  4.266611945266E-01  4.672493562857E-01  4.230394224118E-01
C70 -4.266611945266E-01 -3.275064371428E-02  7.696057758824E-02
C71 -4.266611945266E-01 -4.672493562857E-01 -4.230394224118E-01
C72  4.266611945266E-01  3.275064371428E-02 -7.696057758824E-02
C73  3.521248490813E-01  4.456080116516E-01  3.477114799838E-01
C74 -3.521248490813E-01 -5.439198834844E-02  1.522885200162E-01
C75 -3.521248490813E-01 -4.456080116516E-01 -3.477114799838E-01
C76  3.521248490813E-01  5.439198834844E-02 -1.522885200162E-01
H77  3.454086176610E-01  3.934886726777E-01  1.796497378908E-01
H78 -3.454086176610E-01 -1.065113273223E-01  3.203502621092E-01
H79 -3.454086176610E-01 -3.934886726777E-01 -1.796497378908E-01
H80  3.454086176610E-01  1.065113273223E-01 -3.203502621092E-01
C81 -4.886182374591E-01 -4.261326180292E-01 -2.868158306165E-01
C82  4.886182374591E-01  7.386738197076E-02 -2.131841693835E-01
C83  4.886182374591E-01  4.261326180292E-01  2.868158306165E-01
C84 -4.886182374591E-01 -7.386738197076E-02  2.131841693835E-01
H85 -4.800992499791E-01 -3.679835096229E-01 -1.218346047102E-01
H86  4.800992499791E-01  1.320164903771E-01 -3.781653952898E-01
H87  4.800992499791E-01  3.679835096229E-01  1.218346047102E-01
H88 -4.800992499791E-01 -1.320164903771E-01  3.781653952898E-01


#===END

data_OPT_STEP_37

_symmetry_space_group_name_H-M 'P 1'
_cell_length_a     17.81755903
_cell_length_b      6.87779803
_cell_length_c      6.02819782
_cell_angle_alpha   90.000000
_cell_angle_beta   89.140879
_cell_angle_gamma   90.000000

loop_
_atom_site_label
_atom_site_fract_x
_atom_site_fract_y
_atom_site_fract_z
C1  1.560459587274E-01 -4.057561841624E-01 -4.977373945442E-01
C2 -1.560459587274E-01  9.424381583764E-02 -2.262605455775E-03
C3 -1.560459587274E-01  4.057561841624E-01  4.977373945442E-01
C4  1.560459587274E-01 -9.424381583764E-02  2.262605455775E-03
H5  1.665026734187E-01 -3.255142177542E-01 -3.470522292652E-01
H6 -1.665026734187E-01  1.744857822458E-01 -1.529477707348E-01
H7 -1.665026734187E-01  3.255142177542E-01  3.470522292652E-01
H8  1.665026734187E-01 -1.744857822458E-01  1.529477707348E-01
C9  8.369825636575E-02 -4.077667575892E-01  4.218069227752E-01
C10 -8.369825636574E-02  9.223324241079E-02  7.819307722481E-02
C11 -8.369825636575E-02  4.077667575892E-01 -4.218069227752E-01
C12  8.369825636575E-02 -9.223324241079E-02 -7.819307722481E-02
H13  3.947276725289E-02 -3.325961541639E-01 -4.877142939074E-01
H14 -3.947276725289E-02  1.674038458361E-01 -1.228570609257E-02
H15 -3.947276725289E-02  3.325961541639E-01  4.877142939074E-01
H16  3.947276725289E-02 -1.674038458361E-01  1.228570609257E-02
C17  6.736366610446E-02  4.946006782484E-01  2.274289925238E-01
C18 -6.736366610446E-02 -5.399321751638E-03  2.725710074762E-01
C19 -6.736366610446E-02 -4.946006782484E-01 -2.274289925238E-01
C20  6.736366610446E-02  5.399321751638E-03 -2.725710074762E-01
H21  1.004055526202E-02  4.920583866473E-01  1.696749304877E-01
H22 -1.004055526202E-02 -7.941613352718E-03  3.303250695123E-01
H23 -1.004055526202E-02 -4.920583866473E-01 -1.696749304877E-01
H24  1.004055526202E-02  7.941613352718E-03 -3.303250695123E-01
C25  1.247730090079E-01  4.030125375344E-01  1.096535829334E-01
C26 -1.247730090079E-01 -9.698746246562E-02  3.903464170666E-01
C27 -1.247730090079E-01 -4.030125375344E-01 -1.096535829334E-01
C28  1.247730090079E-01  9.698746246562E-02 -3.903464170666E-01
H29  1.137397981565E-01  3.280480773736E-01 -4.443710540822E-02
H30 -1.137397981565E-01 -1.719519226264E-01 -4.555628945918E-01
H31 -1.137397981565E-01 -3.280480773736E-01  4.443710540822E-02
H32  1.137397981565E-01  1.719519226264E-01  4.555628945918E-01
C33  1.972140377879E-01  4.052492047491E-01  1.903050672276E-01
C34 -1.972140377879E-01 -9.475079525087E-02  3.096949327724E-01
C35 -1.972140377879E-01 -4.052492047491E-01 -1.903050672276E-01
C36  1.972140377879E-01  9.475079525087E-02 -3.096949327724E-01
H37  2.406805019274E-01  3.299000649606E-01  9.698778848733E-02
H38 -2.406805019274E-01 -1.700999350394E-01  4.030122115127E-01
H39 -2.406805019274E-01 -3.299000649606E-01 -9.698778848733E-02
H40  2.406805019274E-01  1.700999350394E-01 -4.030122115127E-01
C41  2.143274166028E-01  4.984759824765E-01  3.892191152780E-01
C42 -2.143274166028E-01 -1.524017523463E-03  1.107808847220E-01
C43 -2.143274166028E-01 -4.984759824765E-01 -3.892191152780E-01
C44  2.143274166028E-01  1.524017523462E-03 -1.107808847220E-01
C45  2.912624978830E-01  4.992408184874E-01  4.763322270033E-01
C46 -2.912624978830E-01 -7.591815125892E-04  2.366777299666E-02
C47 -2.912624978830E-01 -4.992408184874E-01 -4.763322270033E-01
C48  2.912624978830E-01  7.591815125889E-04 -2.366777299666E-02
C49  3.043275970318E-01 -4.370846037477E-01 -3.021233682430E-01
C50 -3.043275970318E-01  6.291539625234E-02 -1.978766317570E-01
C51 -3.043275970318E-01  4.370846037477E-01  3.021233682430E-01
C52  3.043275970318E-01 -6.291539625234E-02  1.978766317570E-01
H53  2.572642607132E-01 -4.038046249337E-01 -1.930117222461E-01
H54 -2.572642607132E-01  9.619537506630E-02 -3.069882777539E-01
H55 -2.572642607132E-01  4.038046249337E-01  1.930117222461E-01
H56  2.572642607132E-01 -9.619537506630E-02  3.069882777539E-01
C57  3.748815627311E-01 -4.159535460561E-01 -2.234380481145E-01
C58 -3.748815627311E-01  8.404645394389E-02 -2.765619518855E-01
C59 -3.748815627311E-01  4.159535460561E-01  2.234380481145E-01
C60  3.748815627311E-01 -8.404645394389E-02  2.765619518855E-01
H61  3.831963366359E-01 -3.634963764894E-01 -5.608315153657E-02
H62 -3.831963366359E-01  1.365036235106E-01 -4.439168484634E-01
H63 -3.831963366359E-01  3.634963764894E-01  5.608315153657E-02
H64  3.831963366359E-01 -1.365036235106E-01  4.439168484634E-01
C65  4.387993897259E-01 -4.571195517057E-01 -3.588494236667E-01
C66 -4.387993897259E-01  4.288044829427E-02 -1.411505763333E-01
C67 -4.387993897259E-01  4.571195517057E-01  3.588494236667E-01
C68  4.387993897259E-01 -4.288044829427E-02  1.411505763333E-01
C69  4.266237623957E-01  4.668148761462E-01  4.234365861599E-01
C70 -4.266237623957E-01 -3.318512385383E-02  7.656341384007E-02
C71 -4.266237623957E-01 -4.668148761462E-01 -4.234365861599E-01
C72  4.266237623957E-01  3.318512385383E-02 -7.656341384007E-02
C73  3.520422523984E-01  4.456500143035E-01  3.481533223337E-01
C74 -3.520422523984E-01 -5.434998569650E-02  1.518466776663E-01
C75 -3.520422523984E-01 -4.456500143035E-01 -3.481533223337E-01
C76  3.520422523984E-01  5.434998569650E-02 -1.518466776663E-01
H77  3.452247466069E-01  3.940650826871E-01  1.798097965627E-01
H78 -3.452247466069E-01 -1.059349173129E-01  3.201902034373E-01
H79 -3.452247466069E-01 -3.940650826871E-01 -1.798097965627E-01
H80  3.452247466069E-01  1.059349173129E-01 -3.201902034373E-01
C81 -4.884375924858E-01 -4.251759994291E-01 -2.870200250956E-01
C82  4.884375924858E-01  7.482400057089E-02 -2.129799749044E-01
C83  4.884375924858E-01  4.251759994291E-01  2.870200250956E-01
C84 -4.884375924858E-01 -7.482400057089E-02  2.129799749044E-01
H85 -4.797927034976E-01 -3.666805606248E-01 -1.220850948852E-01
H86  4.797927034976E-01  1.333194393752E-01 -3.779149051148E-01
H87  4.797927034976E-01  3.666805606248E-01  1.220850948852E-01
H88 -4.797927034976E-01 -1.333194393752E-01  3.779149051148E-01


#===END

data_OPT_STEP_38

_symmetry_space_group_name_H-M 'P 1'
_cell_length_a     17.82770824
_cell_length_b      6.87970341
_cell_length_c      6.02767848
_cell_angle_alpha   90.000000
_cell_angle_beta   89.157047
_cell_angle_gamma   90.000000

loop_
_atom_site_label
_atom_site_fract_x
_atom_site_fract_y
_atom_site_fract_z
C1  1.561554212115E-01 -4.064959616915E-01 -4.976544101575E-01
C2 -1.561554212115E-01  9.350403830846E-02 -2.345589842468E-03
C3 -1.561554212115E-01  4.064959616915E-01  4.976544101575E-01
C4  1.561554212115E-01 -9.350403830846E-02  2.345589842467E-03
H5  1.665286336708E-01 -3.270670443827E-01 -3.461632302912E-01
H6 -1.665286336708E-01  1.729329556173E-01 -1.538367697088E-01
H7 -1.665286336708E-01  3.270670443827E-01  3.461632302912E-01
H8  1.665286336708E-01 -1.729329556173E-01  1.538367697088E-01
C9  8.382482946543E-02 -4.085339636323E-01  4.219834886376E-01
C10 -8.382482946543E-02  9.146603636770E-02  7.801651136235E-02
C11 -8.382482946543E-02  4.085339636323E-01 -4.219834886376E-01
C12  8.382482946543E-02 -9.146603636770E-02 -7.801651136235E-02
H13  3.960289862475E-02 -3.338855432006E-01 -4.869757991392E-01
H14 -3.960289862475E-02  1.661144567994E-01 -1.302420086083E-02
H15 -3.960289862475E-02  3.338855432006E-01  4.869757991392E-01
H16  3.960289862475E-02 -1.661144567994E-01  1.302420086083E-02
C17  6.758138451783E-02  4.949551774114E-01  2.266273165663E-01
C18 -6.758138451783E-02 -5.044822588592E-03  2.733726834337E-01
C19 -6.758138451783E-02 -4.949551774114E-01 -2.266273165663E-01
C20  6.758138451783E-02  5.044822588592E-03 -2.733726834337E-01
H21  1.029111378830E-02  4.922213524544E-01  1.688564010115E-01
H22 -1.029111378830E-02 -7.778647545587E-03  3.311435989885E-01
H23 -1.029111378830E-02 -4.922213524544E-01 -1.688564010115E-01
H24  1.029111378830E-02  7.778647545587E-03 -3.311435989885E-01
C25  1.250245810858E-01  4.042194993196E-01  1.081658581505E-01
C26 -1.250245810858E-01 -9.578050068039E-02  3.918341418495E-01
C27 -1.250245810858E-01 -4.042194993196E-01 -1.081658581505E-01
C28  1.250245810858E-01  9.578050068039E-02 -3.918341418495E-01
H29  1.140394798203E-01  3.298847980463E-01 -4.656939592801E-02
H30 -1.140394798203E-01 -1.701152019537E-01 -4.534306040720E-01
H31 -1.140394798203E-01 -3.298847980463E-01  4.656939592801E-02
H32  1.140394798203E-01  1.701152019537E-01  4.534306040720E-01
C33  1.973944630261E-01  4.060902414436E-01  1.890476186666E-01
C34 -1.973944630261E-01 -9.390975855637E-02  3.109523813334E-01
C35 -1.973944630261E-01 -4.060902414436E-01 -1.890476186666E-01
C36  1.973944630261E-01  9.390975855637E-02 -3.109523813334E-01
H37  2.408871701866E-01  3.313951877477E-01  9.515479358184E-02
H38 -2.408871701866E-01 -1.686048122523E-01  4.048452064182E-01
H39 -2.408871701866E-01 -3.313951877477E-01 -9.515479358184E-02
H40  2.408871701866E-01  1.686048122523E-01 -4.048452064182E-01
C41  2.144597224531E-01  4.984481175454E-01  3.886699575382E-01
C42 -2.144597224531E-01 -1.551882454633E-03  1.113300424618E-01
C43 -2.144597224531E-01 -4.984481175454E-01 -3.886699575382E-01
C44  2.144597224531E-01  1.551882454633E-03 -1.113300424618E-01
C45  2.913633597246E-01  4.989251110470E-01  4.759958823357E-01
C46 -2.913633597246E-01 -1.074888953047E-03  2.400411766430E-02
C47 -2.913633597246E-01 -4.989251110470E-01 -4.759958823357E-01
C48  2.913633597246E-01  1.074888953047E-03 -2.400411766430E-02
C49  3.044198845870E-01 -4.370987758751E-01 -3.025639576156E-01
C50 -3.044198845870E-01  6.290122412489E-02 -1.974360423844E-01
C51 -3.044198845870E-01  4.370987758751E-01  3.025639576156E-01
C52  3.044198845870E-01 -6.290122412489E-02  1.974360423844E-01
H53  2.573854409217E-01 -4.033924762550E-01 -1.936046396436E-01
H54 -2.573854409217E-01  9.660752374498E-02 -3.063953603564E-01
H55 -2.573854409217E-01  4.033924762550E-01  1.936046396436E-01
H56  2.573854409217E-01 -9.660752374498E-02  3.063953603564E-01
C57  3.749210322052E-01 -4.160716591513E-01 -2.236598907501E-01
C58 -3.749210322052E-01  8.392834084873E-02 -2.763401092499E-01
C59 -3.749210322052E-01  4.160716591513E-01  2.236598907501E-01
C60  3.749210322052E-01 -8.392834084873E-02  2.763401092499E-01
H61  3.832049797017E-01 -3.635250568726E-01 -5.627222831520E-02
H62 -3.832049797017E-01  1.364749431274E-01 -4.437277716848E-01
H63 -3.832049797017E-01  3.635250568726E-01  5.627222831520E-02
H64  3.832049797017E-01 -1.364749431274E-01  4.437277716848E-01
C65  4.388165410356E-01 -4.571932642915E-01 -3.589630168265E-01
C66 -4.388165410356E-01  4.280673570847E-02 -1.410369831735E-01
C67 -4.388165410356E-01  4.571932642915E-01  3.589630168265E-01
C68  4.388165410356E-01 -4.280673570847E-02  1.410369831735E-01
C69  4.266688568098E-01  4.669903625941E-01  4.231874120021E-01
C70 -4.266688568098E-01 -3.300963740594E-02  7.681258799788E-02
C71 -4.266688568098E-01 -4.669903625941E-01 -4.231874120021E-01
C72  4.266688568098E-01  3.300963740594E-02 -7.681258799788E-02
C73  3.521434161327E-01  4.454484247784E-01  3.478722732134E-01
C74 -3.521434161327E-01 -5.455157522163E-02  1.521277267866E-01
C75 -3.521434161327E-01 -4.454484247784E-01 -3.478722732134E-01
C76  3.521434161327E-01  5.455157522163E-02 -1.521277267866E-01
H77  3.453545787564E-01  3.934745561923E-01  1.796241063346E-01
H78 -3.453545787564E-01 -1.065254438077E-01  3.203758936654E-01
H79 -3.453545787564E-01 -3.934745561923E-01 -1.796241063346E-01
H80  3.453545787564E-01  1.065254438077E-01 -3.203758936654E-01
C81 -4.884704581685E-01 -4.252986148413E-01 -2.869417528340E-01
C82  4.884704581685E-01  7.470138515867E-02 -2.130582471660E-01
C83  4.884704581685E-01  4.252986148413E-01  2.869417528340E-01
C84 -4.884704581685E-01 -7.470138515867E-02  2.130582471660E-01
H85 -4.798480909288E-01 -3.670506924802E-01 -1.218547097230E-01
H86  4.798480909288E-01  1.329493075198E-01 -3.781452902770E-01
H87  4.798480909288E-01  3.670506924802E-01  1.218547097230E-01
H88 -4.798480909288E-01 -1.329493075198E-01  3.781452902770E-01


#===END

data_OPT_STEP_39

_symmetry_space_group_name_H-M 'P 1'
_cell_length_a     17.81766821
_cell_length_b      6.88630358
_cell_length_c      6.02724646
_cell_angle_alpha   90.000000
_cell_angle_beta   89.028205
_cell_angle_gamma   90.000000

loop_
_atom_site_label
_atom_site_fract_x
_atom_site_fract_y
_atom_site_fract_z
C1  1.559787882077E-01 -4.061304696759E-01 -4.975845199527E-01
C2 -1.559787882077E-01  9.386953032413E-02 -2.415480047350E-03
C3 -1.559787882077E-01  4.061304696759E-01  4.975845199527E-01
C4  1.559787882077E-01 -9.386953032413E-02  2.415480047350E-03
H5  1.663112344048E-01 -3.266198260009E-01 -3.462454436005E-01
H6 -1.663112344048E-01  1.733801739991E-01 -1.537545563995E-01
H7 -1.663112344048E-01  3.266198260009E-01  3.462454436005E-01
H8  1.663112344048E-01 -1.733801739991E-01  1.537545563995E-01
C9  8.365579146212E-02 -4.081779061305E-01  4.221120283903E-01
C10 -8.365579146212E-02  9.182209386947E-02  7.788797160969E-02
C11 -8.365579146212E-02  4.081779061305E-01 -4.221120283903E-01
C12  8.365579146212E-02 -9.182209386947E-02 -7.788797160969E-02
H13  3.945628461371E-02 -3.331773307720E-01 -4.871126321456E-01
H14 -3.945628461371E-02  1.668226692280E-01 -1.288736785436E-02
H15 -3.945628461371E-02  3.331773307720E-01  4.871126321456E-01
H16  3.945628461371E-02 -1.668226692280E-01  1.288736785436E-02
C17  6.750269926174E-02  4.952534460634E-01  2.269093721728E-01
C18 -6.750269926174E-02 -4.746553936633E-03  2.730906278272E-01
C19 -6.750269926174E-02 -4.952534460634E-01 -2.269093721728E-01
C20  6.750269926174E-02  4.746553936632E-03 -2.730906278272E-01
H21  1.022242170241E-02  4.921896672371E-01  1.692028797963E-01
H22 -1.022242170241E-02 -7.810332762916E-03  3.307971202037E-01
H23 -1.022242170241E-02 -4.921896672371E-01 -1.692028797963E-01
H24  1.022242170241E-02  7.810332762916E-03 -3.307971202037E-01
C25  1.250087254495E-01  4.041762405097E-01  1.088596100283E-01
C26 -1.250087254495E-01 -9.582375949029E-02  3.911403899717E-01
C27 -1.250087254495E-01 -4.041762405097E-01 -1.088596100283E-01
C28  1.250087254495E-01  9.582375949028E-02 -3.911403899717E-01
H29  1.140591598383E-01  3.296355175865E-01 -4.567826510028E-02
H30 -1.140591598383E-01 -1.703644824135E-01 -4.543217348997E-01
H31 -1.140591598383E-01 -3.296355175865E-01  4.567826510028E-02
H32  1.140591598383E-01  1.703644824135E-01  4.543217348997E-01
C33  1.973586885982E-01  4.059730245656E-01  1.896986325803E-01
C34 -1.973586885982E-01 -9.402697543440E-02  3.103013674197E-01
C35 -1.973586885982E-01 -4.059730245656E-01 -1.896986325803E-01
C36  1.973586885982E-01  9.402697543440E-02 -3.103013674197E-01
H37  2.409222352120E-01  3.312771685631E-01  9.593416560086E-02
H38 -2.409222352120E-01 -1.687228314369E-01  4.040658343991E-01
H39 -2.409222352120E-01 -3.312771685631E-01 -9.593416560086E-02
H40  2.409222352120E-01  1.687228314369E-01 -4.040658343991E-01
C41  2.143418697723E-01  4.985452650245E-01  3.890649078103E-01
C42 -2.143418697723E-01 -1.454734975549E-03  1.109350921897E-01
C43 -2.143418697723E-01 -4.985452650245E-01 -3.890649078103E-01
C44  2.143418697723E-01  1.454734975549E-03 -1.109350921897E-01
C45  2.912569194252E-01  4.990860876621E-01  4.763015305970E-01
C46 -2.912569194252E-01 -9.139123379498E-04  2.369846940296E-02
C47 -2.912569194252E-01 -4.990860876621E-01 -4.763015305970E-01
C48  2.912569194252E-01  9.139123379495E-04 -2.369846940296E-02
C49  3.042102308018E-01 -4.365956542052E-01 -3.024568457901E-01
C50 -3.042102308018E-01  6.340434579479E-02 -1.975431542099E-01
C51 -3.042102308018E-01  4.365956542052E-01  3.024568457901E-01
C52  3.042102308018E-01 -6.340434579479E-02  1.975431542099E-01
H53  2.570902278082E-01 -4.024065583615E-01 -1.936321781184E-01
H54 -2.570902278082E-01  9.759344163848E-02 -3.063678218816E-01
H55 -2.570902278082E-01  4.024065583615E-01  1.936321781184E-01
H56  2.570902278082E-01 -9.759344163848E-02  3.063678218816E-01
C57  3.747096446854E-01 -4.157438489649E-01 -2.235919590216E-01
C58 -3.747096446854E-01  8.425615103507E-02 -2.764080409784E-01
C59 -3.747096446854E-01  4.157438489649E-01  2.235919590216E-01
C60  3.747096446854E-01 -8.425615103507E-02  2.764080409784E-01
H61  3.828959579526E-01 -3.633292106171E-01 -5.615264556518E-02
H62 -3.828959579526E-01  1.366707893829E-01 -4.438473544348E-01
H63 -3.828959579526E-01  3.633292106171E-01  5.615264556518E-02
H64  3.828959579526E-01 -1.366707893829E-01  4.438473544348E-01
C65  4.387089579191E-01 -4.572143385329E-01 -3.588580547121E-01
C66 -4.387089579191E-01  4.278566146713E-02 -1.411419452879E-01
C67 -4.387089579191E-01  4.572143385329E-01  3.588580547121E-01
C68  4.387089579191E-01 -4.278566146713E-02  1.411419452879E-01
C69  4.266578961938E-01  4.671249244628E-01  4.232880211913E-01
C70 -4.266578961938E-01 -3.287507553725E-02  7.671197880867E-02
C71 -4.266578961938E-01 -4.671249244628E-01 -4.232880211913E-01
C72  4.266578961938E-01  3.287507553725E-02 -7.671197880867E-02
C73  3.521305112269E-01  4.451150473113E-01  3.483146437271E-01
C74 -3.521305112269E-01 -5.488495268874E-02  1.516853562729E-01
C75 -3.521305112269E-01 -4.451150473113E-01 -3.483146437271E-01
C76  3.521305112269E-01  5.488495268874E-02 -1.516853562729E-01
H77  3.453865175001E-01  3.928838590448E-01  1.801856496617E-01
H78 -3.453865175001E-01 -1.071161409552E-01  3.198143503383E-01
H79 -3.453865175001E-01 -3.928838590448E-01 -1.801856496617E-01
H80  3.453865175001E-01  1.071161409552E-01 -3.198143503383E-01
C81 -4.885661820907E-01 -4.252195930176E-01 -2.870424614070E-01
C82  4.885661820907E-01  7.478040698239E-02 -2.129575385930E-01
C83  4.885661820907E-01  4.252195930176E-01  2.870424614070E-01
C84 -4.885661820907E-01 -7.478040698239E-02  2.129575385930E-01
H85 -4.800173647733E-01 -3.668044708093E-01 -1.220716867834E-01
H86  4.800173647733E-01  1.331955291907E-01 -3.779283132166E-01
H87  4.800173647733E-01  3.668044708093E-01  1.220716867834E-01
H88 -4.800173647733E-01 -1.331955291907E-01  3.779283132166E-01


#===END

data_OPT_STEP_40

_symmetry_space_group_name_H-M 'P 1'
_cell_length_a     17.82729191
_cell_length_b      6.88451860
_cell_length_c      6.02698930
_cell_angle_alpha   90.000000
_cell_angle_beta   89.092292
_cell_angle_gamma   90.000000

loop_
_atom_site_label
_atom_site_fract_x
_atom_site_fract_y
_atom_site_fract_z
C1  1.562170298601E-01 -4.057920554320E-01 -4.977402123089E-01
C2 -1.562170298601E-01  9.420794456797E-02 -2.259787691110E-03
C3 -1.562170298601E-01  4.057920554320E-01  4.977402123089E-01
C4  1.562170298601E-01 -9.420794456797E-02  2.259787691110E-03
H5  1.666763428270E-01 -3.258473096142E-01 -3.468364242592E-01
H6 -1.666763428270E-01  1.741526903858E-01 -1.531635757408E-01
H7 -1.666763428270E-01  3.258473096142E-01  3.468364242592E-01
H8  1.666763428270E-01 -1.741526903858E-01  1.531635757408E-01
C9  8.387116152932E-02 -4.079336032530E-01  4.221689122289E-01
C10 -8.387116152932E-02  9.206639674704E-02  7.783108777114E-02
C11 -8.387116152932E-02  4.079336032530E-01 -4.221689122289E-01
C12  8.387116152932E-02 -9.206639674704E-02 -7.783108777114E-02
H13  3.980619230811E-02 -3.326603707811E-01 -4.870638894195E-01
H14 -3.980619230811E-02  1.673396292189E-01 -1.293611058051E-02
H15 -3.980619230811E-02  3.326603707811E-01  4.870638894195E-01
H16  3.980619230811E-02 -1.673396292189E-01  1.293611058051E-02
C17  6.758704375866E-02  4.950840194025E-01  2.273625387825E-01
C18 -6.758704375866E-02 -4.915980597546E-03  2.726374612175E-01
C19 -6.758704375866E-02 -4.950840194025E-01 -2.273625387825E-01
C20  6.758704375866E-02  4.915980597546E-03 -2.726374612175E-01
H21  1.033805015225E-02  4.918498000713E-01  1.695848404939E-01
H22 -1.033805015225E-02 -8.150199928665E-03  3.304151595061E-01
H23 -1.033805015225E-02 -4.918498000713E-01 -1.695848404939E-01
H24  1.033805015225E-02  8.150199928665E-03 -3.304151595061E-01
C25  1.250134326359E-01  4.038627511947E-01  1.092845178941E-01
C26 -1.250134326359E-01 -9.613724880527E-02  3.907154821059E-01
C27 -1.250134326359E-01 -4.038627511947E-01 -1.092845178941E-01
C28  1.250134326359E-01  9.613724880527E-02 -3.907154821059E-01
H29  1.139473246127E-01  3.289162326206E-01 -4.494945583242E-02
H30 -1.139473246127E-01 -1.710837673794E-01 -4.550505441676E-01
H31 -1.139473246127E-01 -3.289162326206E-01  4.494945583242E-02
H32  1.139473246127E-01  1.710837673794E-01  4.550505441676E-01
C33  1.973689380652E-01  4.056445904304E-01  1.899622063710E-01
C34 -1.973689380652E-01 -9.435540956957E-02  3.100377936290E-01
C35 -1.973689380652E-01 -4.056445904304E-01 -1.899622063710E-01
C36  1.973689380652E-01  9.435540956957E-02 -3.100377936290E-01
H37  2.408108759184E-01  3.304146452205E-01  9.677092304744E-02
H38 -2.408108759184E-01 -1.695853547795E-01  4.032290769526E-01
H39 -2.408108759184E-01 -3.304146452205E-01 -9.677092304744E-02
H40  2.408108759184E-01  1.695853547795E-01 -4.032290769526E-01
C41  2.144727803417E-01  4.986447512833E-01  3.889819914813E-01
C42 -2.144727803417E-01 -1.355248716749E-03  1.110180085187E-01
C43 -2.144727803417E-01 -4.986447512833E-01 -3.889819914813E-01
C44  2.144727803417E-01  1.355248716749E-03 -1.110180085187E-01
C45  2.913559953363E-01  4.988723447145E-01  4.763550610494E-01
C46 -2.913559953363E-01 -1.127655285479E-03  2.364493895057E-02
C47 -2.913559953363E-01 -4.988723447145E-01 -4.763550610494E-01
C48  2.913559953363E-01  1.127655285479E-03 -2.364493895057E-02
C49  3.043935847437E-01 -4.366109576089E-01 -3.024764843566E-01
C50 -3.043935847437E-01  6.338904239106E-02 -1.975235156434E-01
C51 -3.043935847437E-01  4.366109576089E-01  3.024764843566E-01
C52  3.043935847437E-01 -6.338904239106E-02  1.975235156434E-01
H53  2.573289170979E-01 -4.021390174042E-01 -1.937586067404E-01
H54 -2.573289170979E-01  9.786098259583E-02 -3.062413932596E-01
H55 -2.573289170979E-01  4.021390174042E-01  1.937586067404E-01
H56  2.573289170979E-01 -9.786098259583E-02  3.062413932596E-01
C57  3.748825914236E-01 -4.156757939087E-01 -2.235969220298E-01
C58 -3.748825914236E-01  8.432420609134E-02 -2.764030779702E-01
C59 -3.748825914236E-01  4.156757939087E-01  2.235969220298E-01
C60  3.748825914236E-01 -8.432420609134E-02  2.764030779702E-01
H61  3.830599040969E-01 -3.633121584609E-01 -5.609515701357E-02
H62 -3.830599040969E-01  1.366878415391E-01 -4.439048429864E-01
H63 -3.830599040969E-01  3.633121584609E-01  5.609515701357E-02
H64  3.830599040969E-01 -1.366878415391E-01  4.439048429864E-01
C65  4.387958226018E-01 -4.571559906231E-01 -3.588701167171E-01
C66 -4.387958226018E-01  4.284400937695E-02 -1.411298832829E-01
C67 -4.387958226018E-01  4.571559906231E-01  3.588701167171E-01
C68  4.387958226018E-01 -4.284400937695E-02  1.411298832829E-01
C69  4.266618816809E-01  4.673886269902E-01  4.231457443859E-01
C70 -4.266618816809E-01 -3.261137300984E-02  7.685425561414E-02
C71 -4.266618816809E-01 -4.673886269902E-01 -4.231457443859E-01
C72  4.266618816809E-01  3.261137300984E-02 -7.685425561414E-02
C73  3.521520534265E-01  4.454695675558E-01  3.480927081854E-01
C74 -3.521520534265E-01 -5.453043244421E-02  1.519072918146E-01
C75 -3.521520534265E-01 -4.454695675558E-01 -3.480927081854E-01
C76  3.521520534265E-01  5.453043244420E-02 -1.519072918146E-01
H77  3.453277601281E-01  3.926476219856E-01  1.801773307722E-01
H78 -3.453277601281E-01 -1.073523780144E-01  3.198226692278E-01
H79 -3.453277601281E-01 -3.926476219856E-01 -1.801773307722E-01
H80  3.453277601281E-01  1.073523780144E-01 -3.198226692278E-01
C81 -4.884896089435E-01 -4.254086290232E-01 -2.869266297057E-01
C82  4.884896089435E-01  7.459137097676E-02 -2.130733702943E-01
C83  4.884896089435E-01  4.254086290232E-01  2.869266297057E-01
C84 -4.884896089435E-01 -7.459137097676E-02  2.130733702943E-01
H85 -4.798997733836E-01 -3.674101841212E-01 -1.217507459760E-01
H86  4.798997733836E-01  1.325898158788E-01 -3.782492540240E-01
H87  4.798997733836E-01  3.674101841212E-01  1.217507459760E-01
H88 -4.798997733836E-01 -1.325898158788E-01  3.782492540240E-01


#===END

data_OPT_STEP_41

_symmetry_space_group_name_H-M 'P 1'
_cell_length_a     17.83765590
_cell_length_b      6.88170152
_cell_length_c      6.01952180
_cell_angle_alpha   90.000000
_cell_angle_beta   89.063672
_cell_angle_gamma   90.000000

loop_
_atom_site_label
_atom_site_fract_x
_atom_site_fract_y
_atom_site_fract_z
C1  1.563354726116E-01 -4.063337233925E-01 -4.969278369350E-01
C2 -1.563354726116E-01  9.366627660747E-02 -3.072163064983E-03
C3 -1.563354726116E-01  4.063337233925E-01  4.969278369350E-01
C4  1.563354726116E-01 -9.366627660747E-02  3.072163064983E-03
H5  1.666637422875E-01 -3.269824198507E-01 -3.452491089666E-01
H6 -1.666637422875E-01  1.730175801493E-01 -1.547508910334E-01
H7 -1.666637422875E-01  3.269824198507E-01  3.452491089666E-01
H8  1.666637422875E-01 -1.730175801493E-01  1.547508910334E-01
C9  8.404741612114E-02 -4.085458671486E-01  4.228248955417E-01
C10 -8.404741612114E-02  9.145413285138E-02  7.717510445827E-02
C11 -8.404741612114E-02  4.085458671486E-01 -4.228248955417E-01
C12  8.404741612114E-02 -9.145413285138E-02 -7.717510445827E-02
H13  3.996224780633E-02 -3.335908669667E-01 -4.859971478278E-01
H14 -3.996224780633E-02  1.664091330333E-01 -1.400285217217E-02
H15 -3.996224780633E-02  3.335908669667E-01  4.859971478278E-01
H16  3.996224780633E-02 -1.664091330333E-01  1.400285217217E-02
C17  6.787041387944E-02  4.948726036362E-01  2.274165941384E-01
C18 -6.787041387944E-02 -5.127396363807E-03  2.725834058616E-01
C19 -6.787041387944E-02 -4.948726036362E-01 -2.274165941384E-01
C20  6.787041387944E-02  5.127396363806E-03 -2.725834058616E-01
H21  1.068621938941E-02  4.915679163035E-01  1.693904268916E-01
H22 -1.068621938941E-02 -8.432083696547E-03  3.306095731084E-01
H23 -1.068621938941E-02 -4.915679163035E-01 -1.693904268916E-01
H24  1.068621938941E-02  8.432083696547E-03 -3.306095731084E-01
C25  1.253444525702E-01  4.041473231317E-01  1.088695399247E-01
C26 -1.253444525702E-01 -9.585267686834E-02  3.911304600753E-01
C27 -1.253444525702E-01 -4.041473231317E-01 -1.088695399247E-01
C28  1.253444525702E-01  9.585267686834E-02 -3.911304600753E-01
H29  1.143415478933E-01  3.294073950426E-01 -4.574171228074E-02
H30 -1.143415478933E-01 -1.705926049574E-01 -4.542582877193E-01
H31 -1.143415478933E-01 -3.294073950426E-01  4.574171228074E-02
H32  1.143415478933E-01  1.705926049574E-01  4.542582877193E-01
C33  1.976398264921E-01  4.060369689194E-01  1.896591150197E-01
C34 -1.976398264921E-01 -9.396303108056E-02  3.103408849803E-01
C35 -1.976398264921E-01 -4.060369689194E-01 -1.896591150197E-01
C36  1.976398264921E-01  9.396303108056E-02 -3.103408849803E-01
H37  2.411386775658E-01  3.314556666601E-01  9.587122718074E-02
H38 -2.411386775658E-01 -1.685443333399E-01  4.041287728193E-01
H39 -2.411386775658E-01 -3.314556666601E-01 -9.587122718074E-02
H40  2.411386775658E-01  1.685443333399E-01 -4.041287728193E-01
C41  2.146321876510E-01  4.985457023849E-01  3.893705584695E-01
C42 -2.146321876510E-01 -1.454297615107E-03  1.106294415305E-01
C43 -2.146321876510E-01 -4.985457023849E-01 -3.893705584695E-01
C44  2.146321876510E-01  1.454297615107E-03 -1.106294415305E-01
C45  2.914665110314E-01  4.989024755159E-01  4.767368474870E-01
C46 -2.914665110314E-01 -1.097524484065E-03  2.326315251296E-02
C47 -2.914665110314E-01 -4.989024755159E-01 -4.767368474870E-01
C48  2.914665110314E-01  1.097524484064E-03 -2.326315251296E-02
C49  3.045200095257E-01 -4.363784104760E-01 -3.019345635264E-01
C50 -3.045200095257E-01  6.362158952400E-02 -1.980654364736E-01
C51 -3.045200095257E-01  4.363784104760E-01  3.019345635264E-01
C52  3.045200095257E-01 -6.362158952400E-02  1.980654364736E-01
H53  2.575067057428E-01 -4.021952915356E-01 -1.928170558086E-01
H54 -2.575067057428E-01  9.780470846435E-02 -3.071829441914E-01
H55 -2.575067057428E-01  4.021952915356E-01  1.928170558086E-01
H56  2.575067057428E-01 -9.780470846435E-02  3.071829441914E-01
C57  3.749761950793E-01 -4.155579641230E-01 -2.230504577663E-01
C58 -3.749761950793E-01  8.444203587698E-02 -2.769495422337E-01
C59 -3.749761950793E-01  4.155579641230E-01  2.230504577663E-01
C60  3.749761950793E-01 -8.444203587698E-02  2.769495422337E-01
H61  3.831400840213E-01 -3.631718965881E-01 -5.535838505809E-02
H62 -3.831400840213E-01  1.368281034119E-01 -4.446416149419E-01
H63 -3.831400840213E-01  3.631718965881E-01  5.535838505809E-02
H64  3.831400840213E-01 -1.368281034119E-01  4.446416149419E-01
C65  4.388457321357E-01 -4.570992447353E-01 -3.585818315230E-01
C66 -4.388457321357E-01  4.290075526467E-02 -1.414181684770E-01
C67 -4.388457321357E-01  4.570992447353E-01  3.585818315230E-01
C68  4.388457321357E-01 -4.290075526467E-02  1.414181684770E-01
C69  4.266961972191E-01  4.671655525993E-01  4.233139971574E-01
C70 -4.266961972191E-01 -3.283444740073E-02  7.668600284257E-02
C71 -4.266961972191E-01 -4.671655525993E-01 -4.233139971574E-01
C72  4.266961972191E-01  3.283444740073E-02 -7.668600284257E-02
C73  3.522202574451E-01  4.451560933698E-01  3.483764014421E-01
C74 -3.522202574451E-01 -5.484390663022E-02  1.516235985579E-01
C75 -3.522202574451E-01 -4.451560933698E-01 -3.483764014421E-01
C76  3.522202574451E-01  5.484390663022E-02 -1.516235985579E-01
H77  3.453830773127E-01  3.919945854255E-01  1.804077290123E-01
H78 -3.453830773127E-01 -1.080054145745E-01  3.195922709877E-01
H79 -3.453830773127E-01 -3.919945854255E-01 -1.804077290123E-01
H80  3.453830773127E-01  1.080054145745E-01 -3.195922709877E-01
C81 -4.884775636373E-01 -4.251320638481E-01 -2.868048563801E-01
C82  4.884775636373E-01  7.486793615188E-02 -2.131951436199E-01
C83  4.884775636373E-01  4.251320638481E-01  2.868048563801E-01
C84 -4.884775636373E-01 -7.486793615188E-02  2.131951436199E-01
H85 -4.798807588138E-01 -3.668489758801E-01 -1.215716907253E-01
H86  4.798807588138E-01  1.331510241199E-01 -3.784283092747E-01
H87  4.798807588138E-01  3.668489758801E-01  1.215716907253E-01
H88 -4.798807588138E-01 -1.331510241199E-01  3.784283092747E-01


#===END

data_OPT_STEP_42

_symmetry_space_group_name_H-M 'P 1'
_cell_length_a     17.85834777
_cell_length_b      6.88775780
_cell_length_c      6.00789277
_cell_angle_alpha   90.000000
_cell_angle_beta   89.132981
_cell_angle_gamma   90.000000

loop_
_atom_site_label
_atom_site_fract_x
_atom_site_fract_y
_atom_site_fract_z
C1  1.566556597690E-01 -4.072032684700E-01 -4.961330184603E-01
C2 -1.566556597690E-01  9.279673152997E-02 -3.866981539749E-03
C3 -1.566556597690E-01  4.072032684700E-01  4.961330184603E-01
C4  1.566556597690E-01 -9.279673152997E-02  3.866981539749E-03
H5  1.669880984438E-01 -3.282087177828E-01 -3.439172234608E-01
H6 -1.669880984438E-01  1.717912822172E-01 -1.560827765392E-01
H7 -1.669880984438E-01  3.282087177828E-01  3.439172234608E-01
H8  1.669880984438E-01 -1.717912822172E-01  1.560827765392E-01
C9  8.442195902862E-02 -4.093027118121E-01  4.233665492488E-01
C10 -8.442195902862E-02  9.069728818793E-02  7.663345075117E-02
C11 -8.442195902862E-02  4.093027118121E-01 -4.233665492488E-01
C12  8.442195902862E-02 -9.069728818793E-02 -7.663345075117E-02
H13  4.037574513924E-02 -3.349001745751E-01 -4.847736235334E-01
H14 -4.037574513924E-02  1.650998254249E-01 -1.522637646664E-02
H15 -4.037574513924E-02  3.349001745751E-01  4.847736235334E-01
H16  4.037574513924E-02 -1.650998254249E-01  1.522637646664E-02
C17  6.824702593878E-02  4.947647115397E-01  2.271574097130E-01
C18 -6.824702593878E-02 -5.235288460334E-03  2.728425902870E-01
C19 -6.824702593878E-02 -4.947647115397E-01 -2.271574097130E-01
C20  6.824702593878E-02  5.235288460334E-03 -2.728425902870E-01
H21  1.110675755108E-02  4.911402550289E-01  1.690042134984E-01
H22 -1.110675755108E-02 -8.859744971061E-03  3.309957865016E-01
H23 -1.110675755108E-02 -4.911402550289E-01 -1.690042134984E-01
H24  1.110675755108E-02  8.859744971060E-03 -3.309957865016E-01
C25  1.256305336633E-01  4.045886658132E-01  1.081210584551E-01
C26 -1.256305336633E-01 -9.541133418680E-02  3.918789415449E-01
C27 -1.256305336633E-01 -4.045886658132E-01 -1.081210584551E-01
C28  1.256305336633E-01  9.541133418680E-02 -3.918789415449E-01
H29  1.146307765803E-01  3.305578917745E-01 -4.735442823121E-02
H30 -1.146307765803E-01 -1.694421082255E-01 -4.526455717688E-01
H31 -1.146307765803E-01 -3.305578917745E-01  4.735442823121E-02
H32  1.146307765803E-01  1.694421082255E-01  4.526455717688E-01
C33  1.978780622651E-01  4.065538849080E-01  1.889907040235E-01
C34 -1.978780622651E-01 -9.344611509202E-02  3.110092959765E-01
C35 -1.978780622651E-01 -4.065538849080E-01 -1.889907040235E-01
C36  1.978780622651E-01  9.344611509202E-02 -3.110092959765E-01
H37  2.413602000882E-01  3.328481800332E-01  9.434046770755E-02
H38 -2.413602000882E-01 -1.671518199668E-01  4.056595322925E-01
H39 -2.413602000882E-01 -3.328481800332E-01 -9.434046770755E-02
H40  2.413602000882E-01  1.671518199668E-01 -4.056595322925E-01
C41  2.148798403216E-01  4.983044712503E-01  3.895991452708E-01
C42 -2.148798403216E-01 -1.695528749730E-03  1.104008547292E-01
C43 -2.148798403216E-01 -4.983044712503E-01 -3.895991452708E-01
C44  2.148798403216E-01  1.695528749730E-03 -1.104008547292E-01
C45  2.916893090235E-01  4.989982468938E-01  4.768729900513E-01
C46 -2.916893090235E-01 -1.001753106203E-03  2.312700994867E-02
C47 -2.916893090235E-01 -4.989982468938E-01 -4.768729900513E-01
C48  2.916893090235E-01  1.001753106203E-03 -2.312700994867E-02
C49  3.048403715902E-01 -4.362495144369E-01 -3.014321464760E-01
C50 -3.048403715902E-01  6.375048556315E-02 -1.985678535240E-01
C51 -3.048403715902E-01  4.362495144369E-01  3.014321464760E-01
C52  3.048403715902E-01 -6.375048556315E-02  1.985678535240E-01
H53  2.579514935091E-01 -4.016424671223E-01 -1.921865620295E-01
H54 -2.579514935091E-01  9.835753287769E-02 -3.078134379705E-01
H55 -2.579514935091E-01  4.016424671223E-01  1.921865620295E-01
H56  2.579514935091E-01 -9.835753287769E-02  3.078134379705E-01
C57  3.752552423677E-01 -4.152555105635E-01 -2.225466035502E-01
C58 -3.752552423677E-01  8.474448943648E-02 -2.774533964498E-01
C59 -3.752552423677E-01  4.152555105635E-01  2.225466035502E-01
C60  3.752552423677E-01 -8.474448943648E-02  2.774533964498E-01
H61  3.834842116584E-01 -3.628921076752E-01 -5.454425190376E-02
H62 -3.834842116584E-01  1.371078923248E-01 -4.454557480962E-01
H63 -3.834842116584E-01  3.628921076752E-01  5.454425190376E-02
H64  3.834842116584E-01 -1.371078923248E-01  4.454557480962E-01
C65  4.389864061328E-01 -4.569416789089E-01 -3.583218849483E-01
C66 -4.389864061328E-01  4.305832109114E-02 -1.416781150517E-01
C67 -4.389864061328E-01  4.569416789089E-01  3.583218849483E-01
C68  4.389864061328E-01 -4.305832109114E-02  1.416781150517E-01
C69  4.267439417116E-01  4.667255771783E-01  4.234699783596E-01
C70 -4.267439417116E-01 -3.327442282173E-02  7.653002164040E-02
C71 -4.267439417116E-01 -4.667255771783E-01 -4.234699783596E-01
C72  4.267439417116E-01  3.327442282173E-02 -7.653002164040E-02
C73  3.523116719642E-01  4.445356849312E-01  3.485582096600E-01
C74 -3.523116719642E-01 -5.546431506879E-02  1.514417903400E-01
C75 -3.523116719642E-01 -4.445356849312E-01 -3.485582096600E-01
C76  3.523116719642E-01  5.546431506879E-02 -1.514417903400E-01
H77  3.453807895482E-01  3.910065195709E-01  1.804372527983E-01
H78 -3.453807895482E-01 -1.089934804291E-01  3.195627472017E-01
H79 -3.453807895482E-01 -3.910065195709E-01 -1.804372527983E-01
H80  3.453807895482E-01  1.089934804291E-01 -3.195627472017E-01
C81 -4.883875324912E-01 -4.246681052405E-01 -2.866561028119E-01
C82  4.883875324912E-01  7.533189475948E-02 -2.133438971881E-01
C83  4.883875324912E-01  4.246681052405E-01  2.866561028119E-01
C84 -4.883875324912E-01 -7.533189475948E-02  2.133438971881E-01
H85 -4.797123474190E-01 -3.658953259475E-01 -1.213729341044E-01
H86  4.797123474190E-01  1.341046740525E-01 -3.786270658956E-01
H87  4.797123474190E-01  3.658953259475E-01  1.213729341044E-01
H88 -4.797123474190E-01 -1.341046740525E-01  3.786270658956E-01


#===END

data_OPT_STEP_43

_symmetry_space_group_name_H-M 'P 1'
_cell_length_a     17.85955337
_cell_length_b      6.89009103
_cell_length_c      6.00424658
_cell_angle_alpha   90.000000
_cell_angle_beta   89.158403
_cell_angle_gamma   90.000000

loop_
_atom_site_label
_atom_site_fract_x
_atom_site_fract_y
_atom_site_fract_z
C1  1.566339689571E-01 -4.069951530422E-01 -4.959990220760E-01
C2 -1.566339689571E-01  9.300484695776E-02 -4.000977924031E-03
C3 -1.566339689571E-01  4.069951530422E-01  4.959990220760E-01
C4  1.566339689571E-01 -9.300484695776E-02  4.000977924031E-03
H5  1.669822345388E-01 -3.278930077900E-01 -3.437437016167E-01
H6 -1.669822345388E-01  1.721069922100E-01 -1.562562983833E-01
H7 -1.669822345388E-01  3.278930077900E-01  3.437437016167E-01
H8  1.669822345388E-01 -1.721069922100E-01  1.562562983833E-01
C9  8.437408633558E-02 -4.093268064285E-01  4.235919737813E-01
C10 -8.437408633558E-02  9.067319357154E-02  7.640802621873E-02
C11 -8.437408633558E-02  4.093268064285E-01 -4.235919737813E-01
C12  8.437408633558E-02 -9.067319357154E-02 -7.640802621873E-02
H13  4.036890684564E-02 -3.348030729604E-01 -4.846522395955E-01
H14 -4.036890684564E-02  1.651969270396E-01 -1.534776040452E-02
H15 -4.036890684564E-02  3.348030729604E-01  4.846522395955E-01
H16  4.036890684564E-02 -1.651969270396E-01  1.534776040452E-02
C17  6.817630398894E-02  4.944871074679E-01  2.274601879930E-01
C18 -6.817630398894E-02 -5.512892532126E-03  2.725398120070E-01
C19 -6.817630398894E-02 -4.944871074679E-01 -2.274601879930E-01
C20  6.817630398894E-02  5.512892532126E-03 -2.725398120070E-01
H21  1.102213535809E-02  4.905960570557E-01  1.693271291153E-01
H22 -1.102213535809E-02 -9.403942944343E-03  3.306728708847E-01
H23 -1.102213535809E-02 -4.905960570557E-01 -1.693271291153E-01
H24  1.102213535809E-02  9.403942944343E-03 -3.306728708847E-01
C25  1.255679735061E-01  4.042989618902E-01  1.084269612774E-01
C26 -1.255679735061E-01 -9.570103810983E-02  3.915730387226E-01
C27 -1.255679735061E-01 -4.042989618902E-01 -1.084269612774E-01
C28  1.255679735061E-01  9.570103810983E-02 -3.915730387226E-01
H29  1.145196194123E-01  3.299538484570E-01 -4.688886818026E-02
H30 -1.145196194123E-01 -1.700461515430E-01 -4.531111318197E-01
H31 -1.145196194123E-01 -3.299538484570E-01  4.688886818026E-02
H32  1.145196194123E-01  1.700461515430E-01  4.531111318197E-01
C33  1.978326536153E-01  4.064774029201E-01  1.892329529487E-01
C34 -1.978326536153E-01 -9.352259707988E-02  3.107670470513E-01
C35 -1.978326536153E-01 -4.064774029201E-01 -1.892329529487E-01
C36  1.978326536153E-01  9.352259707988E-02 -3.107670470513E-01
H37  2.412816059133E-01  3.326551151887E-01  9.469702134630E-02
H38 -2.412816059133E-01 -1.673448848113E-01  4.053029786537E-01
H39 -2.412816059133E-01 -3.326551151887E-01 -9.469702134630E-02
H40  2.412816059133E-01  1.673448848113E-01 -4.053029786537E-01
C41  2.148651760158E-01  4.984740063127E-01  3.897714631364E-01
C42 -2.148651760158E-01 -1.525993687270E-03  1.102285368636E-01
C43 -2.148651760158E-01 -4.984740063127E-01 -3.897714631364E-01
C44  2.148651760158E-01  1.525993687270E-03 -1.102285368636E-01
C45  2.916987709299E-01  4.992070565662E-01  4.770879493485E-01
C46 -2.916987709299E-01 -7.929434338161E-04  2.291205065148E-02
C47 -2.916987709299E-01 -4.992070565662E-01 -4.770879493485E-01
C48  2.916987709299E-01  7.929434338159E-04 -2.291205065148E-02
C49  3.049236569101E-01 -4.358774122545E-01 -3.011686413151E-01
C50 -3.049236569101E-01  6.412258774550E-02 -1.988313586849E-01
C51 -3.049236569101E-01  4.358774122545E-01  3.011686413151E-01
C52  3.049236569101E-01 -6.412258774550E-02  1.988313586849E-01
H53  2.580797562979E-01 -4.012816490759E-01 -1.917967653284E-01
H54 -2.580797562979E-01  9.871835092410E-02 -3.082032346716E-01
H55 -2.580797562979E-01  4.012816490759E-01  1.917967653284E-01
H56  2.580797562979E-01 -9.871835092410E-02  3.082032346716E-01
C57  3.753598248484E-01 -4.150140442477E-01 -2.223009350425E-01
C58 -3.753598248484E-01  8.498595575233E-02 -2.776990649575E-01
C59 -3.753598248484E-01  4.150140442477E-01  2.223009350425E-01
C60  3.753598248484E-01 -8.498595575233E-02  2.776990649575E-01
H61  3.836648635692E-01 -3.624686247318E-01 -5.431179839095E-02
H62 -3.836648635692E-01  1.375313752682E-01 -4.456882016091E-01
H63 -3.836648635692E-01  3.624686247318E-01  5.431179839095E-02
H64  3.836648635692E-01 -1.375313752682E-01  4.456882016091E-01
C65  4.390372643941E-01 -4.568141399580E-01 -3.582081815404E-01
C66 -4.390372643941E-01  4.318586004205E-02 -1.417918184596E-01
C67 -4.390372643941E-01  4.568141399580E-01  3.582081815404E-01
C68  4.390372643941E-01 -4.318586004205E-02  1.417918184596E-01
C69  4.267236077238E-01  4.668198769665E-01  4.235105382111E-01
C70 -4.267236077238E-01 -3.318012303351E-02  7.648946178890E-02
C71 -4.267236077238E-01 -4.668198769665E-01 -4.235105382111E-01
C72  4.267236077238E-01  3.318012303351E-02 -7.648946178890E-02
C73  3.522747307006E-01  4.446553642368E-01  3.486694046019E-01
C74 -3.522747307006E-01 -5.534463576317E-02  1.513305953981E-01
C75 -3.522747307006E-01 -4.446553642368E-01 -3.486694046019E-01
C76  3.522747307006E-01  5.534463576317E-02 -1.513305953981E-01
H77  3.452556307111E-01  3.908902674806E-01  1.805897033858E-01
H78 -3.452556307111E-01 -1.091097325194E-01  3.194102966142E-01
H79 -3.452556307111E-01 -3.908902674806E-01 -1.805897033858E-01
H80  3.452556307111E-01  1.091097325194E-01 -3.194102966142E-01
C81 -4.883165888869E-01 -4.245988316945E-01 -2.865963948487E-01
C82  4.883165888869E-01  7.540116830545E-02 -2.134036051513E-01
C83  4.883165888869E-01  4.245988316945E-01  2.865963948487E-01
C84 -4.883165888869E-01 -7.540116830545E-02  2.134036051513E-01
H85 -4.795748153740E-01 -3.658813984475E-01 -1.212231217377E-01
H86  4.795748153740E-01  1.341186015525E-01 -3.787768782623E-01
H87  4.795748153740E-01  3.658813984475E-01  1.212231217377E-01
H88 -4.795748153740E-01 -1.341186015525E-01  3.787768782623E-01


#===END

data_OPT_STEP_44

_symmetry_space_group_name_H-M 'P 1'
_cell_length_a     17.86467247
_cell_length_b      6.89469757
_cell_length_c      5.99692832
_cell_angle_alpha   90.000000
_cell_angle_beta   89.197767
_cell_angle_gamma   90.000000

loop_
_atom_site_label
_atom_site_fract_x
_atom_site_fract_y
_atom_site_fract_z
C1  1.567691748988E-01 -4.069451871914E-01 -4.957100053286E-01
C2 -1.567691748988E-01  9.305481280862E-02 -4.289994671354E-03
C3 -1.567691748988E-01  4.069451871914E-01  4.957100053286E-01
C4  1.567691748988E-01 -9.305481280862E-02  4.289994671354E-03
H5  1.671729550434E-01 -3.276656172028E-01 -3.434571178335E-01
H6 -1.671729550434E-01  1.723343827972E-01 -1.565428821665E-01
H7 -1.671729550434E-01  3.276656172028E-01  3.434571178335E-01
H8  1.671729550434E-01 -1.723343827972E-01  1.565428821665E-01
C9  8.450001790120E-02 -4.093533151672E-01  4.238334119992E-01
C10 -8.450001790120E-02  9.064668483280E-02  7.616658800078E-02
C11 -8.450001790120E-02  4.093533151672E-01 -4.238334119992E-01
C12  8.450001790120E-02 -9.064668483280E-02 -7.616658800078E-02
H13  4.054546663676E-02 -3.347878817687E-01 -4.844152188176E-01
H14 -4.054546663676E-02  1.652121182313E-01 -1.558478118241E-02
H15 -4.054546663676E-02  3.347878817687E-01  4.844152188176E-01
H16  4.054546663676E-02 -1.652121182313E-01  1.558478118241E-02
C17  6.823729218222E-02  4.942896327240E-01  2.276067574815E-01
C18 -6.823729218222E-02 -5.710367276007E-03  2.723932425185E-01
C19 -6.823729218222E-02 -4.942896327240E-01 -2.276067574815E-01
C20  6.823729218222E-02  5.710367276007E-03 -2.723932425185E-01
H21  1.106924075406E-02  4.900948941339E-01  1.695070219358E-01
H22 -1.106924075406E-02 -9.905105866130E-03  3.304929780642E-01
H23 -1.106924075406E-02 -4.900948941339E-01 -1.695070219358E-01
H24  1.106924075406E-02  9.905105866129E-03 -3.304929780642E-01
C25  1.255834378601E-01  4.041369449668E-01  1.084475949631E-01
C26 -1.255834378601E-01 -9.586305503319E-02  3.915524050369E-01
C27 -1.255834378601E-01 -4.041369449668E-01 -1.084475949631E-01
C28  1.255834378601E-01  9.586305503319E-02 -3.915524050369E-01
H29  1.144690620296E-01  3.296599879676E-01 -4.688469605126E-02
H30 -1.144690620296E-01 -1.703400120324E-01 -4.531153039487E-01
H31 -1.144690620296E-01 -3.296599879676E-01  4.688469605126E-02
H32  1.144690620296E-01  1.703400120324E-01  4.531153039487E-01
C33  1.978519805919E-01  4.064136890209E-01  1.893279790529E-01
C34 -1.978519805919E-01 -9.358631097914E-02  3.106720209471E-01
C35 -1.978519805919E-01 -4.064136890209E-01 -1.893279790529E-01
C36  1.978519805919E-01  9.358631097914E-02 -3.106720209471E-01
H37  2.412248151605E-01  3.324648706635E-01  9.479489213213E-02
H38 -2.412248151605E-01 -1.675351293365E-01  4.052051078679E-01
H39 -2.412248151605E-01 -3.324648706635E-01 -9.479489213213E-02
H40  2.412248151605E-01  1.675351293365E-01 -4.052051078679E-01
C41  2.149478123328E-01  4.985075117581E-01  3.900052483430E-01
C42 -2.149478123328E-01 -1.492488241911E-03  1.099947516570E-01
C43 -2.149478123328E-01 -4.985075117581E-01 -3.900052483430E-01
C44  2.149478123328E-01  1.492488241911E-03 -1.099947516570E-01
C45  2.917748769789E-01  4.991535700495E-01  4.774546725316E-01
C46 -2.917748769789E-01 -8.464299505278E-04  2.254532746835E-02
C47 -2.917748769789E-01 -4.991535700495E-01 -4.774546725316E-01
C48  2.917748769789E-01  8.464299505276E-04 -2.254532746835E-02
C49  3.050892285334E-01 -4.355655795222E-01 -3.007099212236E-01
C50 -3.050892285334E-01  6.443442047783E-02 -1.992900787764E-01
C51 -3.050892285334E-01  4.355655795222E-01  3.007099212236E-01
C52  3.050892285334E-01 -6.443442047783E-02  1.992900787764E-01
H53  2.583111862872E-01 -4.007968650842E-01 -1.912215769110E-01
H54 -2.583111862872E-01  9.920313491577E-02 -3.087784230890E-01
H55 -2.583111862872E-01  4.007968650842E-01  1.912215769110E-01
H56  2.583111862872E-01 -9.920313491577E-02  3.087784230890E-01
C57  3.755372744872E-01 -4.147198697911E-01 -2.218825519903E-01
C58 -3.755372744872E-01  8.528013020889E-02 -2.781174480097E-01
C59 -3.755372744872E-01  4.147198697911E-01  2.218825519903E-01
C60  3.755372744872E-01 -8.528013020889E-02  2.781174480097E-01
H61  3.839509444211E-01 -3.617884089617E-01 -5.391299572040E-02
H62 -3.839509444211E-01  1.382115910383E-01 -4.460870042796E-01
H63 -3.839509444211E-01  3.617884089617E-01  5.391299572040E-02
H64  3.839509444211E-01 -1.382115910383E-01  4.460870042796E-01
C65  4.391261769826E-01 -4.567251969233E-01 -3.579770848433E-01
C66 -4.391261769826E-01  4.327480307668E-02 -1.420229151567E-01
C67 -4.391261769826E-01  4.567251969233E-01  3.579770848433E-01
C68  4.391261769826E-01 -4.327480307668E-02  1.420229151567E-01
C69  4.267218613500E-01  4.668074502637E-01  4.235758598044E-01
C70 -4.267218613500E-01 -3.319254973635E-02  7.642414019555E-02
C71 -4.267218613500E-01 -4.668074502637E-01 -4.235758598044E-01
C72  4.267218613500E-01  3.319254973635E-02 -7.642414019555E-02
C73  3.522667805731E-01  4.445758824351E-01  3.488219174240E-01
C74 -3.522667805731E-01 -5.542411756492E-02  1.511780825760E-01
C75 -3.522667805731E-01 -4.445758824351E-01 -3.488219174240E-01
C76  3.522667805731E-01  5.542411756492E-02 -1.511780825760E-01
H77  3.451450513503E-01  3.905439808674E-01  1.807041236507E-01
H78 -3.451450513503E-01 -1.094560191326E-01  3.192958763493E-01
H79 -3.451450513503E-01 -3.905439808674E-01 -1.807041236507E-01
H80  3.451450513503E-01  1.094560191326E-01 -3.192958763493E-01
C81 -4.882250726704E-01 -4.244698519401E-01 -2.864456197702E-01
C82  4.882250726704E-01  7.553014805994E-02 -2.135543802298E-01
C83  4.882250726704E-01  4.244698519401E-01  2.864456197702E-01
C84 -4.882250726704E-01 -7.553014805994E-02  2.135543802298E-01
H85 -4.793984429141E-01 -3.657096769390E-01 -1.209452171098E-01
H86  4.793984429141E-01  1.342903230610E-01 -3.790547828902E-01
H87  4.793984429141E-01  3.657096769390E-01  1.209452171098E-01
H88 -4.793984429141E-01 -1.342903230610E-01  3.790547828902E-01


#===END

data_OPT_STEP_45

_symmetry_space_group_name_H-M 'P 1'
_cell_length_a     17.87329462
_cell_length_b      6.90181309
_cell_length_c      5.98944206
_cell_angle_alpha   90.000000
_cell_angle_beta   89.222207
_cell_angle_gamma   90.000000

loop_
_atom_site_label
_atom_site_fract_x
_atom_site_fract_y
_atom_site_fract_z
C1  1.568875010706E-01 -4.071020110181E-01 -4.954678972806E-01
C2 -1.568875010706E-01  9.289798898194E-02 -4.532102719438E-03
C3 -1.568875010706E-01  4.071020110181E-01  4.954678972806E-01
C4  1.568875010706E-01 -9.289798898194E-02  4.532102719438E-03
H5  1.672880178043E-01 -3.279518407038E-01 -3.429640734535E-01
H6 -1.672880178043E-01  1.720481592962E-01 -1.570359265465E-01
H7 -1.672880178043E-01  3.279518407038E-01  3.429640734535E-01
H8  1.672880178043E-01 -1.720481592962E-01  1.570359265465E-01
C9  8.463950065125E-02 -4.095987520802E-01  4.240700902805E-01
C10 -8.463950065125E-02  9.040124791976E-02  7.592990971946E-02
C11 -8.463950065125E-02  4.095987520802E-01 -4.240700902805E-01
C12  8.463950065125E-02 -9.040124791976E-02 -7.592990971946E-02
H13  4.070543712702E-02 -3.351628745585E-01 -4.840936083167E-01
H14 -4.070543712702E-02  1.648371254415E-01 -1.590639168331E-02
H15 -4.070543712702E-02  3.351628745585E-01  4.840936083167E-01
H16  4.070543712702E-02 -1.648371254415E-01  1.590639168331E-02
C17  6.836543947972E-02  4.941331919782E-01  2.276268772071E-01
C18 -6.836543947972E-02 -5.866808021803E-03  2.723731227929E-01
C19 -6.836543947972E-02 -4.941331919782E-01 -2.276268772071E-01
C20  6.836543947972E-02  5.866808021803E-03 -2.723731227929E-01
H21  1.121418064758E-02  4.897933935829E-01  1.694914672043E-01
H22 -1.121418064758E-02 -1.020660641714E-02  3.305085327957E-01
H23 -1.121418064758E-02 -4.897933935829E-01 -1.694914672043E-01
H24  1.121418064758E-02  1.020660641714E-02 -3.305085327957E-01
C25  1.256707185754E-01  4.041824281254E-01  1.082584886589E-01
C26 -1.256707185754E-01 -9.581757187461E-02  3.917415113411E-01
C27 -1.256707185754E-01 -4.041824281254E-01 -1.082584886589E-01
C28  1.256707185754E-01  9.581757187461E-02 -3.917415113411E-01
H29  1.145481522473E-01  3.298875537551E-01 -4.730059366107E-02
H30 -1.145481522473E-01 -1.701124462449E-01 -4.526994063389E-01
H31 -1.145481522473E-01 -3.298875537551E-01  4.730059366107E-02
H32  1.145481522473E-01  1.701124462449E-01  4.526994063389E-01
C33  1.979180502512E-01  4.065487244733E-01  1.891690805934E-01
C34 -1.979180502512E-01 -9.345127552670E-02  3.108309194066E-01
C35 -1.979180502512E-01 -4.065487244733E-01 -1.891690805934E-01
C36  1.979180502512E-01  9.345127552670E-02 -3.108309194066E-01
H37  2.412446066196E-01  3.326466382312E-01  9.445650276833E-02
H38 -2.412446066196E-01 -1.673533617688E-01  4.055434972317E-01
H39 -2.412446066196E-01 -3.326466382312E-01 -9.445650276833E-02
H40  2.412446066196E-01  1.673533617688E-01 -4.055434972317E-01
C41  2.150309983136E-01  4.985060146955E-01  3.900807152512E-01
C42 -2.150309983136E-01 -1.493985304474E-03  1.099192847488E-01
C43 -2.150309983136E-01 -4.985060146955E-01 -3.900807152512E-01
C44  2.150309983136E-01  1.493985304474E-03 -1.099192847488E-01
C45  2.918425353824E-01  4.991682447125E-01  4.775954932356E-01
C46 -2.918425353824E-01 -8.317552874625E-04  2.240450676443E-02
C47 -2.918425353824E-01 -4.991682447125E-01 -4.775954932356E-01
C48  2.918425353824E-01  8.317552874623E-04 -2.240450676443E-02
C49  3.052033220444E-01 -4.353111613036E-01 -3.004159531567E-01
C50 -3.052033220444E-01  6.468883869640E-02 -1.995840468433E-01
C51 -3.052033220444E-01  4.353111613036E-01  3.004159531567E-01
C52  3.052033220444E-01 -6.468883869640E-02  1.995840468433E-01
H53  2.584767077707E-01 -4.002335951908E-01 -1.908892829080E-01
H54 -2.584767077707E-01  9.976640480924E-02 -3.091107170920E-01
H55 -2.584767077707E-01  4.002335951908E-01  1.908892829080E-01
H56  2.584767077707E-01 -9.976640480924E-02  3.091107170920E-01
C57  3.756419066232E-01 -4.144239797015E-01 -2.215760597514E-01
C58 -3.756419066232E-01  8.557602029849E-02 -2.784239402486E-01
C59 -3.756419066232E-01  4.144239797015E-01  2.215760597514E-01
C60  3.756419066232E-01 -8.557602029849E-02  2.784239402486E-01
H61  3.841305340045E-01 -3.611081962995E-01 -5.359882457761E-02
H62 -3.841305340045E-01  1.388918037005E-01 -4.464011754224E-01
H63 -3.841305340045E-01  3.611081962995E-01  5.359882457761E-02
H64  3.841305340045E-01 -1.388918037005E-01  4.464011754224E-01
C65  4.391755008049E-01 -4.566125046669E-01 -3.578203303641E-01
C66 -4.391755008049E-01  4.338749533311E-02 -1.421796696359E-01
C67 -4.391755008049E-01  4.566125046669E-01  3.578203303641E-01
C68  4.391755008049E-01 -4.338749533311E-02  1.421796696359E-01
C69  4.267264520633E-01  4.667628969338E-01  4.235776181918E-01
C70 -4.267264520633E-01 -3.323710306624E-02  7.642238180817E-02
C71 -4.267264520633E-01 -4.667628969338E-01 -4.235776181918E-01
C72  4.267264520633E-01  3.323710306624E-02 -7.642238180817E-02
C73  3.522789358906E-01  4.444729153827E-01  3.488258811730E-01
C74 -3.522789358906E-01 -5.552708461727E-02  1.511741188270E-01
C75 -3.522789358906E-01 -4.444729153827E-01 -3.488258811730E-01
C76  3.522789358906E-01  5.552708461727E-02 -1.511741188270E-01
H77  3.451292532504E-01  3.902657230562E-01  1.805954203838E-01
H78 -3.451292532504E-01 -1.097342769438E-01  3.194045796162E-01
H79 -3.451292532504E-01 -3.902657230562E-01 -1.805954203838E-01
H80  3.451292532504E-01  1.097342769438E-01 -3.194045796162E-01
C81 -4.881826311380E-01 -4.243006288988E-01 -2.862992847021E-01
C82  4.881826311380E-01  7.569937110124E-02 -2.137007152979E-01
C83  4.881826311380E-01  4.243006288988E-01  2.862992847021E-01
C84 -4.881826311380E-01 -7.569937110124E-02  2.137007152979E-01
H85 -4.793216816439E-01 -3.654854989699E-01 -1.206444351032E-01
H86  4.793216816439E-01  1.345145010301E-01 -3.793555648968E-01
H87  4.793216816439E-01  3.654854989699E-01  1.206444351032E-01
H88 -4.793216816439E-01 -1.345145010301E-01  3.793555648968E-01


#===END

data_OPT_STEP_46

_symmetry_space_group_name_H-M 'P 1'
_cell_length_a     17.87755968
_cell_length_b      6.90428871
_cell_length_c      5.98467350
_cell_angle_alpha   90.000000
_cell_angle_beta   89.215796
_cell_angle_gamma   90.000000

loop_
_atom_site_label
_atom_site_fract_x
_atom_site_fract_y
_atom_site_fract_z
C1  1.569282279492E-01 -4.073852487476E-01 -4.950934851527E-01
C2 -1.569282279492E-01  9.261475125242E-02 -4.906514847314E-03
C3 -1.569282279492E-01  4.073852487476E-01  4.950934851527E-01
C4  1.569282279492E-01 -9.261475125242E-02  4.906514847314E-03
H5  1.673067453258E-01 -3.282685386831E-01 -3.424944199484E-01
H6 -1.673067453258E-01  1.717314613169E-01 -1.575055800516E-01
H7 -1.673067453258E-01  3.282685386831E-01  3.424944199484E-01
H8  1.673067453258E-01 -1.717314613169E-01  1.575055800516E-01
C9  8.471438954203E-02 -4.098259982064E-01  4.242677557305E-01
C10 -8.471438954203E-02  9.017400179360E-02  7.573224426947E-02
C11 -8.471438954203E-02  4.098259982064E-01 -4.242677557305E-01
C12  8.471438954203E-02 -9.017400179360E-02 -7.573224426947E-02
H13  4.075838042832E-02 -3.355397764930E-01 -4.838055955259E-01
H14 -4.075838042832E-02  1.644602235070E-01 -1.619440447410E-02
H15 -4.075838042832E-02  3.355397764930E-01  4.838055955259E-01
H16  4.075838042832E-02 -1.644602235070E-01  1.619440447410E-02
C17  6.848002954328E-02  4.941336424572E-01  2.274960224723E-01
C18 -6.848002954328E-02 -5.866357542842E-03  2.725039775277E-01
C19 -6.848002954328E-02 -4.941336424572E-01 -2.274960224723E-01
C20  6.848002954328E-02  5.866357542842E-03 -2.725039775277E-01
H21  1.135754399048E-02  4.898713676534E-01  1.692614705571E-01
H22 -1.135754399048E-02 -1.012863234664E-02  3.307385294429E-01
H23 -1.135754399048E-02 -4.898713676534E-01 -1.692614705571E-01
H24  1.135754399048E-02  1.012863234664E-02 -3.307385294429E-01
C25  1.257902763036E-01  4.043948861265E-01  1.079242518611E-01
C26 -1.257902763036E-01 -9.560511387349E-02  3.920757481389E-01
C27 -1.257902763036E-01 -4.043948861265E-01 -1.079242518611E-01
C28  1.257902763036E-01  9.560511387349E-02 -3.920757481389E-01
H29  1.147042048941E-01  3.302927751131E-01 -4.785378062195E-02
H30 -1.147042048941E-01 -1.697072248869E-01 -4.521462193781E-01
H31 -1.147042048941E-01 -3.302927751131E-01  4.785378062195E-02
H32  1.147042048941E-01  1.697072248869E-01  4.521462193781E-01
C33  1.980048182984E-01  4.067026471816E-01  1.890033702949E-01
C34 -1.980048182984E-01 -9.329735281842E-02  3.109966297051E-01
C35 -1.980048182984E-01 -4.067026471816E-01 -1.890033702949E-01
C36  1.980048182984E-01  9.329735281842E-02 -3.109966297051E-01
H37  2.413464457791E-01  3.330176744732E-01  9.404304786162E-02
H38 -2.413464457791E-01 -1.669823255268E-01  4.059569521384E-01
H39 -2.413464457791E-01 -3.330176744732E-01 -9.404304786162E-02
H40  2.413464457791E-01  1.669823255268E-01 -4.059569521384E-01
C41  2.150885550661E-01  4.984643218469E-01  3.901907861660E-01
C42 -2.150885550661E-01 -1.535678153076E-03  1.098092138340E-01
C43 -2.150885550661E-01 -4.984643218469E-01 -3.901907861660E-01
C44  2.150885550661E-01  1.535678153076E-03 -1.098092138340E-01
C45  2.918863156608E-01  4.991164405760E-01  4.777640457014E-01
C46 -2.918863156608E-01 -8.835594240246E-04  2.223595429862E-02
C47 -2.918863156608E-01 -4.991164405760E-01 -4.777640457014E-01
C48  2.918863156608E-01  8.835594240244E-04 -2.223595429862E-02
C49  3.052627620385E-01 -4.351683167710E-01 -3.001656441912E-01
C50 -3.052627620385E-01  6.483168322896E-02 -1.998343558088E-01
C51 -3.052627620385E-01  4.351683167710E-01  3.001656441912E-01
C52  3.052627620385E-01 -6.483168322896E-02  1.998343558088E-01
H53  2.585622316353E-01 -3.998078161774E-01 -1.906151513160E-01
H54 -2.585622316353E-01  1.001921838226E-01 -3.093848486840E-01
H55 -2.585622316353E-01  3.998078161774E-01  1.906151513160E-01
H56  2.585622316353E-01 -1.001921838226E-01  3.093848486840E-01
C57  3.756895488221E-01 -4.142266303581E-01 -2.213422473667E-01
C58 -3.756895488221E-01  8.577336964190E-02 -2.786577526333E-01
C59 -3.756895488221E-01  4.142266303581E-01  2.213422473667E-01
C60  3.756895488221E-01 -8.577336964190E-02  2.786577526333E-01
H61  3.842163585898E-01 -3.606899180039E-01 -5.334577207554E-02
H62 -3.842163585898E-01  1.393100819961E-01 -4.466542279245E-01
H63 -3.842163585898E-01  3.606899180039E-01  5.334577207554E-02
H64  3.842163585898E-01 -1.393100819961E-01  4.466542279245E-01
C65  4.391989845331E-01 -4.566248512938E-01 -3.576652524709E-01
C66 -4.391989845331E-01  4.337514870617E-02 -1.423347475291E-01
C67 -4.391989845331E-01  4.566248512938E-01  3.576652524709E-01
C68  4.391989845331E-01 -4.337514870617E-02  1.423347475291E-01
C69  4.267378837104E-01  4.666412567029E-01  4.236378887406E-01
C70 -4.267378837104E-01 -3.335874329710E-02  7.636211125935E-02
C71 -4.267378837104E-01 -4.666412567029E-01 -4.236378887406E-01
C72  4.267378837104E-01  3.335874329710E-02 -7.636211125935E-02
C73  3.523021462504E-01  4.442727470626E-01  3.489230699411E-01
C74 -3.523021462504E-01 -5.572725293737E-02  1.510769300589E-01
C75 -3.523021462504E-01 -4.442727470626E-01 -3.489230699411E-01
C76  3.523021462504E-01  5.572725293737E-02 -1.510769300589E-01
H77  3.451696516393E-01  3.900632953635E-01  1.805680252716E-01
H78 -3.451696516393E-01 -1.099367046365E-01  3.194319747284E-01
H79 -3.451696516393E-01 -3.900632953635E-01 -1.805680252716E-01
H80  3.451696516393E-01  1.099367046365E-01 -3.194319747284E-01
C81 -4.881729181266E-01 -4.242177552495E-01 -2.861924818033E-01
C82  4.881729181266E-01  7.578224475054E-02 -2.138075181967E-01
C83  4.881729181266E-01  4.242177552495E-01  2.861924818033E-01
C84 -4.881729181266E-01 -7.578224475054E-02  2.138075181967E-01
H85 -4.793096814522E-01 -3.652492434291E-01 -1.204867003839E-01
H86  4.793096814522E-01  1.347507565709E-01 -3.795132996161E-01
H87  4.793096814522E-01  3.652492434291E-01  1.204867003839E-01
H88 -4.793096814522E-01 -1.347507565709E-01  3.795132996161E-01


#===END

data_OPT_STEP_47

_symmetry_space_group_name_H-M 'P 1'
_cell_length_a     17.87874861
_cell_length_b      6.90769198
_cell_length_c      5.98304869
_cell_angle_alpha   90.000000
_cell_angle_beta   89.231988
_cell_angle_gamma   90.000000

loop_
_atom_site_label
_atom_site_fract_x
_atom_site_fract_y
_atom_site_fract_z
C1  1.569797853126E-01 -4.074335549905E-01 -4.950429295441E-01
C2 -1.569797853126E-01  9.256644500954E-02 -4.957070455907E-03
C3 -1.569797853126E-01  4.074335549905E-01  4.950429295441E-01
C4  1.569797853126E-01 -9.256644500954E-02  4.957070455907E-03
H5  1.673582280387E-01 -3.284909822302E-01 -3.422968344046E-01
H6 -1.673582280387E-01  1.715090177698E-01 -1.577031655954E-01
H7 -1.673582280387E-01  3.284909822302E-01  3.422968344046E-01
H8  1.673582280387E-01 -1.715090177698E-01  1.577031655954E-01
C9  8.476547871661E-02 -4.098447564906E-01  4.242629038879E-01
C10 -8.476547871661E-02  9.015524350938E-02  7.573709611207E-02
C11 -8.476547871661E-02  4.098447564906E-01 -4.242629038879E-01
C12  8.476547871661E-02 -9.015524350938E-02 -7.573709611207E-02
H13  4.080741105369E-02 -3.355736791530E-01 -4.838222834351E-01
H14 -4.080741105369E-02  1.644263208470E-01 -1.617771656491E-02
H15 -4.080741105369E-02  3.355736791530E-01  4.838222834351E-01
H16  4.080741105369E-02 -1.644263208470E-01  1.617771656491E-02
C17  6.851483445182E-02  4.942335975357E-01  2.273741242702E-01
C18 -6.851483445182E-02 -5.766402464258E-03  2.726258757298E-01
C19 -6.851483445182E-02 -4.942335975357E-01 -2.273741242702E-01
C20  6.851483445182E-02  5.766402464258E-03 -2.726258757298E-01
H21  1.140736144780E-02  4.901489477102E-01  1.690484107756E-01
H22 -1.140736144780E-02 -9.851052289789E-03  3.309515892244E-01
H23 -1.140736144780E-02 -4.901489477102E-01 -1.690484107756E-01
H24  1.140736144780E-02  9.851052289789E-03 -3.309515892244E-01
C25  1.257876832641E-01  4.043982684418E-01  1.078921420989E-01
C26 -1.257876832641E-01 -9.560173155817E-02  3.921078579011E-01
C27 -1.257876832641E-01 -4.043982684418E-01 -1.078921420989E-01
C28  1.257876832641E-01  9.560173155817E-02 -3.921078579011E-01
H29  1.147111466022E-01  3.304430741502E-01 -4.800996329572E-02
H30 -1.147111466022E-01 -1.695569258498E-01 -4.519900367043E-01
H31 -1.147111466022E-01 -3.304430741502E-01  4.800996329572E-02
H32  1.147111466022E-01  1.695569258498E-01  4.519900367043E-01
C33  1.979991089172E-01  4.066053025761E-01  1.890739369558E-01
C34 -1.979991089172E-01 -9.339469742389E-02  3.109260630442E-01
C35 -1.979991089172E-01 -4.066053025761E-01 -1.890739369558E-01
C36  1.979991089172E-01  9.339469742389E-02 -3.109260630442E-01
H37  2.413238072607E-01  3.328092140515E-01  9.422116102498E-02
H38 -2.413238072607E-01 -1.671907859485E-01  4.057788389750E-01
H39 -2.413238072607E-01 -3.328092140515E-01 -9.422116102498E-02
H40  2.413238072607E-01  1.671907859485E-01 -4.057788389750E-01
C41  2.151006301016E-01  4.983100941044E-01  3.903260984299E-01
C42 -2.151006301016E-01 -1.689905895583E-03  1.096739015701E-01
C43 -2.151006301016E-01 -4.983100941044E-01 -3.903260984299E-01
C44  2.151006301016E-01  1.689905895583E-03 -1.096739015701E-01
C45  2.919096385937E-01  4.990510529222E-01  4.778395687310E-01
C46 -2.919096385937E-01 -9.489470778031E-04  2.216043126899E-02
C47 -2.919096385937E-01 -4.990510529222E-01 -4.778395687310E-01
C48  2.919096385937E-01  9.489470778029E-04 -2.216043126899E-02
C49  3.053154588773E-01 -4.352144681438E-01 -3.000534580457E-01
C50 -3.053154588773E-01  6.478553185622E-02 -1.999465419543E-01
C51 -3.053154588773E-01  4.352144681438E-01  3.000534580457E-01
C52  3.053154588773E-01 -6.478553185622E-02  1.999465419543E-01
H53  2.586277131738E-01 -3.998668994211E-01 -1.904500933496E-01
H54 -2.586277131738E-01  1.001331005789E-01 -3.095499066504E-01
H55 -2.586277131738E-01  3.998668994211E-01  1.904500933496E-01
H56  2.586277131738E-01 -1.001331005789E-01  3.095499066504E-01
C57  3.757431646384E-01 -4.142606232481E-01 -2.212232410471E-01
C58 -3.757431646384E-01  8.573937675188E-02 -2.787767589529E-01
C59 -3.757431646384E-01  4.142606232481E-01  2.212232410471E-01
C60  3.757431646384E-01 -8.573937675188E-02  2.787767589529E-01
H61  3.843039466675E-01 -3.605607022592E-01 -5.324883664788E-02
H62 -3.843039466675E-01  1.394392977408E-01 -4.467511633521E-01
H63 -3.843039466675E-01  3.605607022592E-01  5.324883664788E-02
H64  3.843039466675E-01 -1.394392977408E-01  4.467511633521E-01
C65  4.392254853763E-01 -4.565765679869E-01 -3.576487939637E-01
C66 -4.392254853763E-01  4.342343201308E-02 -1.423512060363E-01
C67 -4.392254853763E-01  4.565765679869E-01  3.576487939637E-01
C68  4.392254853763E-01 -4.342343201308E-02  1.423512060363E-01
C69  4.267367663890E-01  4.666067987526E-01  4.236545886463E-01
C70 -4.267367663890E-01 -3.339320124739E-02  7.634541135372E-02
C71 -4.267367663890E-01 -4.666067987526E-01 -4.236545886463E-01
C72  4.267367663890E-01  3.339320124739E-02 -7.634541135372E-02
C73  3.523003178872E-01  4.441930781689E-01  3.489485866497E-01
C74 -3.523003178872E-01 -5.580692183106E-02  1.510514133503E-01
C75 -3.523003178872E-01 -4.441930781689E-01 -3.489485866497E-01
C76  3.523003178872E-01  5.580692183106E-02 -1.510514133503E-01
H77  3.451794621745E-01  3.899820412954E-01  1.805314341691E-01
H78 -3.451794621745E-01 -1.100179587046E-01  3.194685658309E-01
H79 -3.451794621745E-01 -3.899820412954E-01 -1.805314341691E-01
H80  3.451794621745E-01  1.100179587045E-01 -3.194685658309E-01
C81 -4.881482630062E-01 -4.241729686006E-01 -2.861755718211E-01
C82  4.881482630062E-01  7.582703139941E-02 -2.138244281789E-01
C83  4.881482630062E-01  4.241729686006E-01  2.861755718211E-01
C84 -4.881482630062E-01 -7.582703139941E-02  2.138244281789E-01
H85 -4.792801041545E-01 -3.651830811675E-01 -1.204281426362E-01
H86  4.792801041545E-01  1.348169188325E-01 -3.795718573638E-01
H87  4.792801041545E-01  3.651830811675E-01  1.204281426362E-01
H88 -4.792801041545E-01 -1.348169188325E-01  3.795718573638E-01


#===END

data_OPT_STEP_48

_symmetry_space_group_name_H-M 'P 1'
_cell_length_a     17.87616998
_cell_length_b      6.90713980
_cell_length_c      5.98332459
_cell_angle_alpha   90.000000
_cell_angle_beta   89.208018
_cell_angle_gamma   90.000000

loop_
_atom_site_label
_atom_site_fract_x
_atom_site_fract_y
_atom_site_fract_z
C1  1.569375416032E-01 -4.073570160611E-01 -4.951181686953E-01
C2 -1.569375416032E-01  9.264298393890E-02 -4.881831304667E-03
C3 -1.569375416032E-01  4.073570160611E-01  4.951181686953E-01
C4  1.569375416032E-01 -9.264298393890E-02  4.881831304667E-03
H5  1.673143098327E-01 -3.283605475133E-01 -3.424217993249E-01
H6 -1.673143098327E-01  1.716394524867E-01 -1.575782006751E-01
H7 -1.673143098327E-01  3.283605475133E-01  3.424217993249E-01
H8  1.673143098327E-01 -1.716394524867E-01  1.575782006751E-01
C9  8.472166414645E-02 -4.097394606358E-01  4.242033811440E-01
C10 -8.472166414645E-02  9.026053936416E-02  7.579661885597E-02
C11 -8.472166414645E-02  4.097394606358E-01 -4.242033811440E-01
C12  8.472166414645E-02 -9.026053936416E-02 -7.579661885597E-02
H13  4.076083460004E-02 -3.353917041208E-01 -4.839079317055E-01
H14 -4.076083460004E-02  1.646082958792E-01 -1.609206829453E-02
H15 -4.076083460004E-02  3.353917041208E-01  4.839079317055E-01
H16  4.076083460004E-02 -1.646082958792E-01  1.609206829453E-02
C17  6.847869601082E-02  4.942823611721E-01  2.273889531955E-01
C18 -6.847869601082E-02 -5.717638827880E-03  2.726110468045E-01
C19 -6.847869601082E-02 -4.942823611721E-01 -2.273889531955E-01
C20  6.847869601082E-02  5.717638827879E-03 -2.726110468045E-01
H21  1.136828317137E-02  4.902679976347E-01  1.690674374277E-01
H22 -1.136828317137E-02 -9.732002365269E-03  3.309325625723E-01
H23 -1.136828317137E-02 -4.902679976347E-01 -1.690674374277E-01
H24  1.136828317137E-02  9.732002365269E-03 -3.309325625723E-01
C25  1.257737166342E-01  4.043968683643E-01  1.078967122620E-01
C26 -1.257737166342E-01 -9.560313163565E-02  3.921032877380E-01
C27 -1.257737166342E-01 -4.043968683643E-01 -1.078967122620E-01
C28  1.257737166342E-01  9.560313163565E-02 -3.921032877380E-01
H29  1.147027620453E-01  3.303633300536E-01 -4.796101378357E-02
H30 -1.147027620453E-01 -1.696366699464E-01 -4.520389862164E-01
H31 -1.147027620453E-01 -3.303633300536E-01  4.796101378357E-02
H32  1.147027620453E-01  1.696366699464E-01  4.520389862164E-01
C33  1.979890889197E-01  4.065829739409E-01  1.890367614019E-01
C34 -1.979890889197E-01 -9.341702605905E-02  3.109632385981E-01
C35 -1.979890889197E-01 -4.065829739409E-01 -1.890367614019E-01
C36  1.979890889197E-01  9.341702605905E-02 -3.109632385981E-01
H37  2.413354780861E-01  3.327884695950E-01  9.417584275322E-02
H38 -2.413354780861E-01 -1.672115304050E-01  4.058241572468E-01
H39 -2.413354780861E-01 -3.327884695950E-01 -9.417584275322E-02
H40  2.413354780861E-01  1.672115304050E-01 -4.058241572468E-01
C41  2.150751471229E-01  4.983455962135E-01  3.902507778678E-01
C42 -2.150751471229E-01 -1.654403786524E-03  1.097492221322E-01
C43 -2.150751471229E-01 -4.983455962135E-01 -3.902507778678E-01
C44  2.150751471229E-01  1.654403786524E-03 -1.097492221322E-01
C45  2.918781260365E-01  4.990525891980E-01  4.777820617548E-01
C46 -2.918781260365E-01 -9.474108020219E-04  2.221793824517E-02
C47 -2.918781260365E-01 -4.990525891980E-01 -4.777820617548E-01
C48  2.918781260365E-01  9.474108020217E-04 -2.221793824517E-02
C49  3.052463743037E-01 -4.352177994599E-01 -3.001233626594E-01
C50 -3.052463743037E-01  6.478220054014E-02 -1.998766373406E-01
C51 -3.052463743037E-01  4.352177994599E-01  3.001233626594E-01
C52  3.052463743037E-01 -6.478220054014E-02  1.998766373406E-01
H53  2.585307161397E-01 -3.999087339652E-01 -1.905289923585E-01
H54 -2.585307161397E-01  1.000912660348E-01 -3.094710076415E-01
H55 -2.585307161397E-01  3.999087339652E-01  1.905289923585E-01
H56  2.585307161397E-01 -1.000912660348E-01  3.094710076415E-01
C57  3.756719963882E-01 -4.142410292485E-01 -2.212875344409E-01
C58 -3.756719963882E-01  8.575897075150E-02 -2.787124655591E-01
C59 -3.756719963882E-01  4.142410292485E-01  2.212875344409E-01
C60  3.756719963882E-01 -8.575897075150E-02  2.787124655591E-01
H61  3.841919960134E-01 -3.605896417050E-01 -5.329955607893E-02
H62 -3.841919960134E-01  1.394103582950E-01 -4.467004439211E-01
H63 -3.841919960134E-01  3.605896417050E-01  5.329955607893E-02
H64  3.841919960134E-01 -1.394103582950E-01  4.467004439211E-01
C65  4.391908603885E-01 -4.565785563941E-01 -3.576700039086E-01
C66 -4.391908603885E-01  4.342144360587E-02 -1.423299960914E-01
C67 -4.391908603885E-01  4.565785563941E-01  3.576700039086E-01
C68  4.391908603885E-01 -4.342144360587E-02  1.423299960914E-01
C69  4.267371669974E-01  4.666056658371E-01  4.236398635627E-01
C70 -4.267371669974E-01 -3.339433416286E-02  7.636013643729E-02
C71 -4.267371669974E-01 -4.666056658371E-01 -4.236398635627E-01
C72  4.267371669974E-01  3.339433416286E-02 -7.636013643729E-02
C73  3.523003772652E-01  4.441959661621E-01  3.489165149407E-01
C74 -3.523003772652E-01 -5.580403383792E-02  1.510834850593E-01
C75 -3.523003772652E-01 -4.441959661621E-01 -3.489165149407E-01
C76  3.523003772652E-01  5.580403383792E-02 -1.510834850593E-01
H77  3.451990805495E-01  3.899415976641E-01  1.805271602454E-01
H78 -3.451990805495E-01 -1.100584023359E-01  3.194728397546E-01
H79 -3.451990805495E-01 -3.899415976641E-01 -1.805271602454E-01
H80  3.451990805495E-01  1.100584023359E-01 -3.194728397546E-01
C81 -4.881831174789E-01 -4.241553252681E-01 -2.861901705279E-01
C82  4.881831174789E-01  7.584467473191E-02 -2.138098294721E-01
C83  4.881831174789E-01  4.241553252681E-01  2.861901705279E-01
C84 -4.881831174789E-01 -7.584467473191E-02  2.138098294721E-01
H85 -4.793429140823E-01 -3.651541802075E-01 -1.204580562274E-01
H86  4.793429140823E-01  1.348458197925E-01 -3.795419437726E-01
H87  4.793429140823E-01  3.651541802075E-01  1.204580562274E-01
H88 -4.793429140823E-01 -1.348458197925E-01  3.795419437726E-01


#===END

data_OPT_STEP_49

_symmetry_space_group_name_H-M 'P 1'
_cell_length_a     17.87395099
_cell_length_b      6.90829388
_cell_length_c      5.98240948
_cell_angle_alpha   90.000000
_cell_angle_beta   89.196220
_cell_angle_gamma   90.000000

loop_
_atom_site_label
_atom_site_fract_x
_atom_site_fract_y
_atom_site_fract_z
C1  1.568926687488E-01 -4.072740955400E-01 -4.950488672654E-01
C2 -1.568926687488E-01  9.272590445998E-02 -4.951132734591E-03
C3 -1.568926687488E-01  4.072740955400E-01  4.950488672654E-01
C4  1.568926687488E-01 -9.272590445998E-02  4.951132734591E-03
H5  1.672725895044E-01 -3.282060994672E-01 -3.423944957651E-01
H6 -1.672725895044E-01  1.717939005328E-01 -1.576055042349E-01
H7 -1.672725895044E-01  3.282060994672E-01  3.423944957651E-01
H8  1.672725895044E-01 -1.717939005328E-01  1.576055042349E-01
C9  8.467766494512E-02 -4.096005858675E-01  4.242289429077E-01
C10 -8.467766494512E-02  9.039941413248E-02  7.577105709235E-02
C11 -8.467766494512E-02  4.096005858675E-01 -4.242289429077E-01
C12  8.467766494512E-02 -9.039941413248E-02 -7.577105709235E-02
H13  4.072013360407E-02 -3.351271627469E-01 -4.839485152564E-01
H14 -4.072013360407E-02  1.648728372531E-01 -1.605148474361E-02
H15 -4.072013360407E-02  3.351271627469E-01  4.839485152564E-01
H16  4.072013360407E-02 -1.648728372531E-01  1.605148474361E-02
C17  6.843859210866E-02  4.943707586364E-01  2.274424306018E-01
C18 -6.843859210866E-02 -5.629241363601E-03  2.725575693982E-01
C19 -6.843859210866E-02 -4.943707586364E-01 -2.274424306018E-01
C20  6.843859210866E-02  5.629241363601E-03 -2.725575693982E-01
H21  1.132829695687E-02  4.905031562814E-01  1.690572459615E-01
H22 -1.132829695687E-02 -9.496843718596E-03  3.309427540385E-01
H23 -1.132829695687E-02 -4.905031562814E-01 -1.690572459615E-01
H24  1.132829695687E-02  9.496843718596E-03 -3.309427540385E-01
C25  1.257389632687E-01  4.043471701810E-01  1.080168345366E-01
C26 -1.257389632687E-01 -9.565282981901E-02  3.919831654634E-01
C27 -1.257389632687E-01 -4.043471701810E-01 -1.080168345366E-01
C28  1.257389632687E-01  9.565282981901E-02 -3.919831654634E-01
H29  1.146627978925E-01  3.301832572316E-01 -4.778177561891E-02
H30 -1.146627978925E-01 -1.698167427684E-01 -4.522182243811E-01
H31 -1.146627978925E-01 -3.301832572316E-01  4.778177561891E-02
H32  1.146627978925E-01  1.698167427684E-01  4.522182243811E-01
C33  1.979534605510E-01  4.064791089626E-01  1.891813355187E-01
C34 -1.979534605510E-01 -9.352089103739E-02  3.108186644813E-01
C35 -1.979534605510E-01 -4.064791089626E-01 -1.891813355187E-01
C36  1.979534605510E-01  9.352089103739E-02 -3.108186644813E-01
H37  2.413099086565E-01  3.326240849178E-01  9.438093135685E-02
H38 -2.413099086565E-01 -1.673759150822E-01  4.056190686431E-01
H39 -2.413099086565E-01 -3.326240849178E-01 -9.438093135685E-02
H40  2.413099086565E-01  1.673759150822E-01 -4.056190686431E-01
C41  2.150394579854E-01  4.983556625962E-01  3.903458914935E-01
C42 -2.150394579854E-01 -1.644337403820E-03  1.096541085065E-01
C43 -2.150394579854E-01 -4.983556625962E-01 -3.903458914935E-01
C44  2.150394579854E-01  1.644337403820E-03 -1.096541085065E-01
C45  2.918485906222E-01  4.990563413459E-01  4.778816120236E-01
C46 -2.918485906222E-01 -9.436586540895E-04  2.211838797640E-02
C47 -2.918485906222E-01 -4.990563413459E-01 -4.778816120236E-01
C48  2.918485906222E-01  9.436586540893E-04 -2.211838797640E-02
C49  3.052180841197E-01 -4.351763947151E-01 -3.000114934834E-01
C50 -3.052180841197E-01  6.482360528492E-02 -1.999885065166E-01
C51 -3.052180841197E-01  4.351763947151E-01  3.000114934834E-01
C52  3.052180841197E-01 -6.482360528492E-02  1.999885065166E-01
H53  2.584939050118E-01 -3.998805352642E-01 -1.903765804202E-01
H54 -2.584939050118E-01  1.001194647358E-01 -3.096234195798E-01
H55 -2.584939050118E-01  3.998805352642E-01  1.903765804202E-01
H56  2.584939050118E-01 -1.001194647358E-01  3.096234195798E-01
C57  3.756528523906E-01 -4.141900699596E-01 -2.212053478586E-01
C58 -3.756528523906E-01  8.580993004041E-02 -2.787946521414E-01
C59 -3.756528523906E-01  4.141900699596E-01  2.212053478586E-01
C60  3.756528523906E-01 -8.580993004041E-02  2.787946521414E-01
H61  3.841566899888E-01 -3.605861387149E-01 -5.318137516529E-02
H62 -3.841566899888E-01  1.394138612851E-01 -4.468186248347E-01
H63 -3.841566899888E-01  3.605861387149E-01  5.318137516529E-02
H64  3.841566899888E-01 -1.394138612851E-01  4.468186248347E-01
C65  4.391817793347E-01 -4.565612810175E-01 -3.576209202581E-01
C66 -4.391817793347E-01  4.343871898247E-02 -1.423790797419E-01
C67 -4.391817793347E-01  4.565612810175E-01  3.576209202581E-01
C68  4.391817793347E-01 -4.343871898247E-02  1.423790797419E-01
C69  4.267265598653E-01  4.666026974662E-01  4.236748053980E-01
C70 -4.267265598653E-01 -3.339730253381E-02  7.632519460203E-02
C71 -4.267265598653E-01 -4.666026974662E-01 -4.236748053980E-01
C72  4.267265598653E-01  3.339730253381E-02 -7.632519460203E-02
C73  3.522800611617E-01  4.441858261180E-01  3.489841104602E-01
C74 -3.522800611617E-01 -5.581417388196E-02  1.510158895398E-01
C75 -3.522800611617E-01 -4.441858261180E-01 -3.489841104602E-01
C76  3.522800611617E-01  5.581417388196E-02 -1.510158895398E-01
H77  3.451715271859E-01  3.898524517012E-01  1.806131001919E-01
H78 -3.451715271859E-01 -1.101475482988E-01  3.193868998081E-01
H79 -3.451715271859E-01 -3.898524517012E-01 -1.806131001919E-01
H80  3.451715271859E-01  1.101475482988E-01 -3.193868998081E-01
C81 -4.881816819863E-01 -4.241230281789E-01 -2.861831761876E-01
C82  4.881816819863E-01  7.587697182113E-02 -2.138168238124E-01
C83  4.881816819863E-01  4.241230281789E-01  2.861831761876E-01
C84 -4.881816819863E-01 -7.587697182113E-02  2.138168238124E-01
H85 -4.793445631260E-01 -3.650964806461E-01 -1.204552090880E-01
H86  4.793445631260E-01  1.349035193539E-01 -3.795447909120E-01
H87  4.793445631260E-01  3.650964806461E-01  1.204552090880E-01
H88 -4.793445631260E-01 -1.349035193539E-01  3.795447909120E-01


#===END

data_OPT_STEP_50

_symmetry_space_group_name_H-M 'P 1'
_cell_length_a     17.87385579
_cell_length_b      6.91068801
_cell_length_c      5.98044609
_cell_angle_alpha   90.000000
_cell_angle_beta   89.185566
_cell_angle_gamma   90.000000

loop_
_atom_site_label
_atom_site_fract_x
_atom_site_fract_y
_atom_site_fract_z
C1  1.568972726711E-01 -4.072562211462E-01 -4.949554872009E-01
C2 -1.568972726711E-01  9.274377885381E-02 -5.044512799115E-03
C3 -1.568972726711E-01  4.072562211462E-01  4.949554872009E-01
C4  1.568972726711E-01 -9.274377885381E-02  5.044512799115E-03
H5  1.672779029797E-01 -3.281761599820E-01 -3.422830228984E-01
H6 -1.672779029797E-01  1.718238400180E-01 -1.577169771016E-01
H7 -1.672779029797E-01  3.281761599820E-01  3.422830228984E-01
H8  1.672779029797E-01 -1.718238400180E-01  1.577169771016E-01
C9  8.468604091114E-02 -4.095358807095E-01  4.242977715232E-01
C10 -8.468604091114E-02  9.046411929045E-02  7.570222847676E-02
C11 -8.468604091114E-02  4.095358807095E-01 -4.242977715232E-01
C12  8.468604091114E-02 -9.046411929045E-02 -7.570222847676E-02
H13  4.073193454856E-02 -3.349974525466E-01 -4.839039312389E-01
H14 -4.073193454856E-02  1.650025474534E-01 -1.609606876112E-02
H15 -4.073193454856E-02  3.349974525466E-01  4.839039312389E-01
H16  4.073193454856E-02 -1.650025474534E-01  1.609606876112E-02
C17  6.844968754288E-02  4.944455520525E-01  2.274699628702E-01
C18 -6.844968754288E-02 -5.554447947528E-03  2.725300371298E-01
C19 -6.844968754288E-02 -4.944455520525E-01 -2.274699628702E-01
C20  6.844968754288E-02  5.554447947528E-03 -2.725300371298E-01
H21  1.134565749964E-02  4.907092296743E-01  1.690217577912E-01
H22 -1.134565749964E-02 -9.290770325713E-03  3.309782422088E-01
H23 -1.134565749964E-02 -4.907092296743E-01 -1.690217577912E-01
H24  1.134565749964E-02  9.290770325712E-03 -3.309782422088E-01
C25  1.257449855863E-01  4.043442300607E-01  1.080466187169E-01
C26 -1.257449855863E-01 -9.565576993926E-02  3.919533812831E-01
C27 -1.257449855863E-01 -4.043442300607E-01 -1.080466187169E-01
C28  1.257449855863E-01  9.565576993926E-02 -3.919533812831E-01
H29  1.146677389317E-01  3.301556247311E-01 -4.777280695916E-02
H30 -1.146677389317E-01 -1.698443752689E-01 -4.522271930408E-01
H31 -1.146677389317E-01 -3.301556247311E-01  4.777280695916E-02
H32  1.146677389317E-01  1.698443752689E-01  4.522271930408E-01
C33  1.979553788364E-01  4.064345392833E-01  1.892370899466E-01
C34 -1.979553788364E-01 -9.356546071667E-02  3.107629100534E-01
C35 -1.979553788364E-01 -4.064345392833E-01 -1.892370899466E-01
C36  1.979553788364E-01  9.356546071667E-02 -3.107629100534E-01
H37  2.413071350690E-01  3.325232092652E-01  9.444702938774E-02
H38 -2.413071350690E-01 -1.674767907348E-01  4.055529706123E-01
H39 -2.413071350690E-01 -3.325232092652E-01 -9.444702938774E-02
H40  2.413071350690E-01  1.674767907348E-01 -4.055529706123E-01
C41  2.150409812709E-01  4.983386369043E-01  3.904296191950E-01
C42 -2.150409812709E-01 -1.661363095699E-03  1.095703808050E-01
C43 -2.150409812709E-01 -4.983386369043E-01 -3.904296191950E-01
C44  2.150409812709E-01  1.661363095698E-03 -1.095703808050E-01
C45  2.918487724686E-01  4.990611398985E-01  4.779633723939E-01
C46 -2.918487724686E-01 -9.388601014662E-04  2.203662760614E-02
C47 -2.918487724686E-01 -4.990611398985E-01 -4.779633723939E-01
C48  2.918487724686E-01  9.388601014659E-04 -2.203662760614E-02
C49  3.052151027877E-01 -4.351130057756E-01 -2.998943776921E-01
C50 -3.052151027877E-01  6.488699422441E-02 -2.001056223079E-01
C51 -3.052151027877E-01  4.351130057756E-01  2.998943776921E-01
C52  3.052151027877E-01 -6.488699422441E-02  2.001056223079E-01
H53  2.584899603281E-01 -3.997967300051E-01 -1.902158193927E-01
H54 -2.584899603281E-01  1.002032699949E-01 -3.097841806073E-01
H55 -2.584899603281E-01  3.997967300051E-01  1.902158193927E-01
H56  2.584899603281E-01 -1.002032699949E-01  3.097841806073E-01
C57  3.756493468188E-01 -4.141107877646E-01 -2.211020826101E-01
C58 -3.756493468188E-01  8.588921223538E-02 -2.788979173899E-01
C59 -3.756493468188E-01  4.141107877646E-01  2.211020826101E-01
C60  3.756493468188E-01 -8.588921223538E-02  2.788979173899E-01
H61  3.841478425031E-01 -3.604730306469E-01 -5.304777047560E-02
H62 -3.841478425031E-01  1.395269693531E-01 -4.469522295244E-01
H63 -3.841478425031E-01  3.604730306469E-01  5.304777047560E-02
H64  3.841478425031E-01 -1.395269693531E-01  4.469522295244E-01
C65  4.391800222915E-01 -4.565190674041E-01 -3.575704984845E-01
C66 -4.391800222915E-01  4.348093259589E-02 -1.424295015155E-01
C67 -4.391800222915E-01  4.565190674041E-01  3.575704984845E-01
C68  4.391800222915E-01 -4.348093259589E-02  1.424295015155E-01
C69  4.267277770662E-01  4.665930957517E-01  4.236974969145E-01
C70 -4.267277770662E-01 -3.340690424835E-02  7.630250308554E-02
C71 -4.267277770662E-01 -4.665930957517E-01 -4.236974969145E-01
C72  4.267277770662E-01  3.340690424834E-02 -7.630250308554E-02
C73  3.522825543874E-01  4.441493276667E-01  3.490297952371E-01
C74 -3.522825543874E-01 -5.585067233332E-02  1.509702047629E-01
C75 -3.522825543874E-01 -4.441493276667E-01 -3.490297952371E-01
C76  3.522825543874E-01  5.585067233332E-02 -1.509702047629E-01
H77  3.451710402616E-01  3.897250287833E-01  1.806526833293E-01
H78 -3.451710402616E-01 -1.102749712167E-01  3.193473166707E-01
H79 -3.451710402616E-01 -3.897250287833E-01 -1.806526833293E-01
H80  3.451710402616E-01  1.102749712167E-01 -3.193473166707E-01
C81 -4.881840560776E-01 -4.240746460840E-01 -2.861541006564E-01
C82  4.881840560776E-01  7.592535391598E-02 -2.138458993436E-01
C83  4.881840560776E-01  4.240746460840E-01  2.861541006564E-01
C84 -4.881840560776E-01 -7.592535391598E-02  2.138458993436E-01
H85 -4.793486455724E-01 -3.650158772507E-01 -1.204021432488E-01
H86  4.793486455724E-01  1.349841227493E-01 -3.795978567512E-01
H87  4.793486455724E-01  3.650158772507E-01  1.204021432488E-01
H88 -4.793486455724E-01 -1.349841227493E-01  3.795978567512E-01


#===END

data_OPT_STEP_51

_symmetry_space_group_name_H-M 'P 1'
_cell_length_a     17.87460958
_cell_length_b      6.91212484
_cell_length_c      5.97934249
_cell_angle_alpha   90.000000
_cell_angle_beta   89.188521
_cell_angle_gamma   90.000000

loop_
_atom_site_label
_atom_site_fract_x
_atom_site_fract_y
_atom_site_fract_z
C1  1.569120654434E-01 -4.072634866033E-01 -4.948444322461E-01
C2 -1.569120654434E-01  9.273651339674E-02 -5.155567753917E-03
C3 -1.569120654434E-01  4.072634866033E-01  4.948444322461E-01
C4  1.569120654434E-01 -9.273651339674E-02  5.155567753917E-03
H5  1.672955877369E-01 -3.281796173763E-01 -3.421533135762E-01
H6 -1.672955877369E-01  1.718203826237E-01 -1.578466864238E-01
H7 -1.672955877369E-01  3.281796173763E-01  3.421533135762E-01
H8  1.672955877369E-01 -1.718203826237E-01  1.578466864238E-01
C9  8.470387545802E-02 -4.095163758864E-01  4.243848295321E-01
C10 -8.470387545802E-02  9.048362411359E-02  7.561517046793E-02
C11 -8.470387545802E-02  4.095163758864E-01 -4.243848295321E-01
C12  8.470387545802E-02 -9.048362411359E-02 -7.561517046793E-02
H13  4.075344287251E-02 -3.349626937954E-01 -4.838201621145E-01
H14 -4.075344287251E-02  1.650373062046E-01 -1.617983788546E-02
H15 -4.075344287251E-02  3.349626937954E-01  4.838201621145E-01
H16  4.075344287251E-02 -1.650373062046E-01  1.617983788546E-02
C17  6.846443834566E-02  4.944795383516E-01  2.275180034054E-01
C18 -6.846443834566E-02 -5.520461648426E-03  2.724819965946E-01
C19 -6.846443834566E-02 -4.944795383516E-01 -2.275180034054E-01
C20  6.846443834566E-02  5.520461648426E-03 -2.724819965946E-01
H21  1.136439158483E-02  4.908041106199E-01  1.690280899145E-01
H22 -1.136439158483E-02 -9.195889380125E-03  3.309719100855E-01
H23 -1.136439158483E-02 -4.908041106199E-01 -1.690280899145E-01
H24  1.136439158483E-02  9.195889380124E-03 -3.309719100855E-01
C25  1.257467765131E-01  4.043355455632E-01  1.081104900923E-01
C26 -1.257467765131E-01 -9.566445443678E-02  3.918895099077E-01
C27 -1.257467765131E-01 -4.043355455632E-01 -1.081104900923E-01
C28  1.257467765131E-01  9.566445443678E-02 -3.918895099077E-01
H29  1.146637760617E-01  3.301485701851E-01 -4.772779976220E-02
H30 -1.146637760617E-01 -1.698514298149E-01 -4.522722002378E-01
H31 -1.146637760617E-01 -3.301485701851E-01  4.772779976220E-02
H32  1.146637760617E-01  1.698514298149E-01  4.522722002378E-01
C33  1.979531884849E-01  4.064041721798E-01  1.893324615054E-01
C34 -1.979531884849E-01 -9.359582782023E-02  3.106675384946E-01
C35 -1.979531884849E-01 -4.064041721798E-01 -1.893324615054E-01
C36  1.979531884849E-01  9.359582782023E-02 -3.106675384946E-01
H37  2.412925741942E-01  3.324505604574E-01  9.454620694076E-02
H38 -2.412925741942E-01 -1.675494395426E-01  4.054537930592E-01
H39 -2.412925741942E-01 -3.324505604574E-01 -9.454620694076E-02
H40  2.412925741942E-01  1.675494395426E-01 -4.054537930592E-01
C41  2.150475136559E-01  4.983211378620E-01  3.905351819288E-01
C42 -2.150475136559E-01 -1.678862137963E-03  1.094648180712E-01
C43 -2.150475136559E-01 -4.983211378620E-01 -3.905351819288E-01
C44  2.150475136559E-01  1.678862137963E-03 -1.094648180712E-01
C45  2.918571189028E-01  4.990591522370E-01  4.780593852177E-01
C46 -2.918571189028E-01 -9.408477630459E-04  2.194061478226E-02
C47 -2.918571189028E-01 -4.990591522370E-01 -4.780593852177E-01
C48  2.918571189028E-01  9.408477630457E-04 -2.194061478226E-02
C49  3.052388249034E-01 -4.350888701911E-01 -2.997767109165E-01
C50 -3.052388249034E-01  6.491112980885E-02 -2.002232890835E-01
C51 -3.052388249034E-01  4.350888701911E-01  2.997767109165E-01
C52  3.052388249034E-01 -6.491112980885E-02  2.002232890835E-01
H53  2.585246790234E-01 -3.997546598266E-01 -1.900634650696E-01
H54 -2.585246790234E-01  1.002453401734E-01 -3.099365349304E-01
H55 -2.585246790234E-01  3.997546598266E-01  1.900634650696E-01
H56  2.585246790234E-01 -1.002453401734E-01  3.099365349304E-01
C57  3.756756953170E-01 -4.140876495396E-01 -2.210047607499E-01
C58 -3.756756953170E-01  8.591235046043E-02 -2.789952392501E-01
C59 -3.756756953170E-01  4.140876495396E-01  2.210047607499E-01
C60  3.756756953170E-01 -8.591235046043E-02  2.789952392501E-01
H61  3.841855131496E-01 -3.604440151849E-01 -5.292877111629E-02
H62 -3.841855131496E-01  1.395559848151E-01 -4.470712288837E-01
H63 -3.841855131496E-01  3.604440151849E-01  5.292877111629E-02
H64  3.841855131496E-01 -1.395559848151E-01  4.470712288837E-01
C65  4.391928525420E-01 -4.565017019453E-01 -3.575238218585E-01
C66 -4.391928525420E-01  4.349829805474E-02 -1.424761781415E-01
C67 -4.391928525420E-01  4.565017019453E-01  3.575238218585E-01
C68  4.391928525420E-01 -4.349829805474E-02  1.424761781415E-01
C69  4.267258432599E-01  4.665927500998E-01  4.237237340847E-01
C70 -4.267258432599E-01 -3.340724990023E-02  7.627626591530E-02
C71 -4.267258432599E-01 -4.665927500998E-01 -4.237237340847E-01
C72  4.267258432599E-01  3.340724990023E-02 -7.627626591530E-02
C73  3.522787732100E-01  4.441371344255E-01  3.490854470445E-01
C74 -3.522787732100E-01 -5.586286557452E-02  1.509145529555E-01
C75 -3.522787732100E-01 -4.441371344255E-01 -3.490854470445E-01
C76  3.522787732100E-01  5.586286557452E-02 -1.509145529555E-01
H77  3.451516531174E-01  3.896839479327E-01  1.806985101864E-01
H78 -3.451516531174E-01 -1.103160520673E-01  3.193014898136E-01
H79 -3.451516531174E-01 -3.896839479327E-01 -1.806985101864E-01
H80  3.451516531174E-01  1.103160520673E-01 -3.193014898136E-01
C81 -4.881690334255E-01 -4.240595604213E-01 -2.861328722880E-01
C82  4.881690334255E-01  7.594043957869E-02 -2.138671277120E-01
C83  4.881690334255E-01  4.240595604213E-01  2.861328722880E-01
C84 -4.881690334255E-01 -7.594043957869E-02  2.138671277120E-01
H85 -4.793196508214E-01 -3.649952758593E-01 -1.203628266397E-01
H86  4.793196508214E-01  1.350047241407E-01 -3.796371733603E-01
H87  4.793196508214E-01  3.649952758593E-01  1.203628266397E-01
H88 -4.793196508214E-01 -1.350047241407E-01  3.796371733603E-01


#===END

data_OPT_STEP_52

_symmetry_space_group_name_H-M 'P 1'
_cell_length_a     17.87529320
_cell_length_b      6.91264743
_cell_length_c      5.97899235
_cell_angle_alpha   90.000000
_cell_angle_beta   89.190096
_cell_angle_gamma   90.000000

loop_
_atom_site_label
_atom_site_fract_x
_atom_site_fract_y
_atom_site_fract_z
C1  1.569270114322E-01 -4.072664143740E-01 -4.947987346488E-01
C2 -1.569270114322E-01  9.273358562603E-02 -5.201265351188E-03
C3 -1.569270114322E-01  4.072664143740E-01  4.947987346488E-01
C4  1.569270114322E-01 -9.273358562603E-02  5.201265351188E-03
H5  1.673142744927E-01 -3.281813961014E-01 -3.421025423572E-01
H6 -1.673142744927E-01  1.718186038986E-01 -1.578974576428E-01
H7 -1.673142744927E-01  3.281813961014E-01  3.421025423572E-01
H8  1.673142744927E-01 -1.718186038986E-01  1.578974576428E-01
C9  8.471933134663E-02 -4.095147480888E-01  4.244373351390E-01
C10 -8.471933134663E-02  9.048525191119E-02  7.556266486104E-02
C11 -8.471933134663E-02  4.095147480888E-01 -4.244373351390E-01
C12  8.471933134663E-02 -9.048525191119E-02 -7.556266486104E-02
H13  4.077150973635E-02 -3.349698004265E-01 -4.837531348099E-01
H14 -4.077150973635E-02  1.650301995735E-01 -1.624686519013E-02
H15 -4.077150973635E-02  3.349698004265E-01  4.837531348099E-01
H16  4.077150973635E-02 -1.650301995735E-01  1.624686519013E-02
C17  6.847575082568E-02  4.944914398096E-01  2.275541916164E-01
C18 -6.847575082568E-02 -5.508560190433E-03  2.724458083836E-01
C19 -6.847575082568E-02 -4.944914398096E-01 -2.275541916164E-01
C20  6.847575082568E-02  5.508560190433E-03 -2.724458083836E-01
H21  1.137733971447E-02  4.908314993010E-01  1.690584483415E-01
H22 -1.137733971447E-02 -9.168500698955E-03  3.309415516585E-01
H23 -1.137733971447E-02 -4.908314993010E-01 -1.690584483415E-01
H24  1.137733971447E-02  9.168500698955E-03 -3.309415516585E-01
C25  1.257510618710E-01  4.043417781903E-01  1.081393719716E-01
C26 -1.257510618710E-01 -9.565822180974E-02  3.918606280284E-01
C27 -1.257510618710E-01 -4.043417781903E-01 -1.081393719716E-01
C28  1.257510618710E-01  9.565822180974E-02 -3.918606280284E-01
H29  1.146647220671E-01  3.301652135896E-01 -4.770774961499E-02
H30 -1.146647220671E-01 -1.698347864104E-01 -4.522922503850E-01
H31 -1.146647220671E-01 -3.301652135896E-01  4.770774961499E-02
H32  1.146647220671E-01  1.698347864104E-01  4.522922503850E-01
C33  1.979568357498E-01  4.064061560333E-01  1.893631092202E-01
C34 -1.979568357498E-01 -9.359384396665E-02  3.106368907798E-01
C35 -1.979568357498E-01 -4.064061560333E-01 -1.893631092202E-01
C36  1.979568357498E-01  9.359384396665E-02 -3.106368907798E-01
H37  2.412873801522E-01  3.324331778332E-01  9.456823240600E-02
H38 -2.412873801522E-01 -1.675668221668E-01  4.054317675940E-01
H39 -2.412873801522E-01 -3.324331778332E-01 -9.456823240600E-02
H40  2.412873801522E-01  1.675668221668E-01 -4.054317675940E-01
C41  2.150562262854E-01  4.983176301352E-01  3.905734592599E-01
C42 -2.150562262854E-01 -1.682369864814E-03  1.094265407401E-01
C43 -2.150562262854E-01 -4.983176301352E-01 -3.905734592599E-01
C44  2.150562262854E-01  1.682369864814E-03 -1.094265407401E-01
C45  2.918654347890E-01  4.990625066069E-01  4.780915832321E-01
C46 -2.918654347890E-01 -9.374933930556E-04  2.190841676789E-02
C47 -2.918654347890E-01 -4.990625066069E-01 -4.780915832321E-01
C48  2.918654347890E-01  9.374933930553E-04 -2.190841676789E-02
C49  3.052513767462E-01 -4.350831580418E-01 -2.997368248809E-01
C50 -3.052513767462E-01  6.491684195824E-02 -2.002631751191E-01
C51 -3.052513767462E-01  4.350831580418E-01  2.997368248809E-01
C52  3.052513767462E-01 -6.491684195824E-02  2.002631751191E-01
H53  2.585426934789E-01 -3.997453359322E-01 -1.900116957561E-01
H54 -2.585426934789E-01  1.002546640678E-01 -3.099883042439E-01
H55 -2.585426934789E-01  3.997453359322E-01  1.900116957561E-01
H56  2.585426934789E-01 -1.002546640678E-01  3.099883042439E-01
C57  3.756879349245E-01 -4.140839301133E-01 -2.209716496812E-01
C58 -3.756879349245E-01  8.591606988666E-02 -2.790283503188E-01
C59 -3.756879349245E-01  4.140839301133E-01  2.209716496812E-01
C60  3.756879349245E-01 -8.591606988666E-02  2.790283503188E-01
H61  3.842035171637E-01 -3.604397264819E-01 -5.288798024739E-02
H62 -3.842035171637E-01  1.395602735181E-01 -4.471120197526E-01
H63 -3.842035171637E-01  3.604397264819E-01  5.288798024739E-02
H64  3.842035171637E-01 -1.395602735181E-01  4.471120197526E-01
C65  4.391989963449E-01 -4.564971044789E-01 -3.575081452428E-01
C66 -4.391989963449E-01  4.350289552110E-02 -1.424918547572E-01
C67 -4.391989963449E-01  4.564971044789E-01  3.575081452428E-01
C68  4.391989963449E-01 -4.350289552110E-02  1.424918547572E-01
C69  4.267276029369E-01  4.665951172566E-01  4.237319133497E-01
C70 -4.267276029369E-01 -3.340488274335E-02  7.626808665026E-02
C71 -4.267276029369E-01 -4.665951172566E-01 -4.237319133497E-01
C72  4.267276029369E-01  3.340488274335E-02 -7.626808665026E-02
C73  3.522818691272E-01  4.441379367468E-01  3.491037530804E-01
C74 -3.522818691272E-01 -5.586206325319E-02  1.508962469196E-01
C75 -3.522818691272E-01 -4.441379367468E-01 -3.491037530804E-01
C76  3.522818691272E-01  5.586206325319E-02 -1.508962469196E-01
H77  3.451472792257E-01  3.896887167993E-01  1.807097550705E-01
H78 -3.451472792257E-01 -1.103112832007E-01  3.192902449295E-01
H79 -3.451472792257E-01 -3.896887167993E-01 -1.807097550705E-01
H80  3.451472792257E-01  1.103112832007E-01 -3.192902449295E-01
C81 -4.881641300865E-01 -4.240594572899E-01 -2.861247399248E-01
C82  4.881641300865E-01  7.594054271007E-02 -2.138752600752E-01
C83  4.881641300865E-01  4.240594572899E-01  2.861247399248E-01
C84 -4.881641300865E-01 -7.594054271007E-02  2.138752600752E-01
H85 -4.793073661060E-01 -3.649961192600E-01 -1.203476334912E-01
H86  4.793073661060E-01  1.350038807400E-01 -3.796523665088E-01
H87  4.793073661060E-01  3.649961192600E-01  1.203476334912E-01
H88 -4.793073661060E-01 -1.350038807400E-01  3.796523665088E-01


#===END

data_OPT_STEP_53

_symmetry_space_group_name_H-M 'P 1'
_cell_length_a     17.87570805
_cell_length_b      6.91276677
_cell_length_c      5.97888430
_cell_angle_alpha   90.000000
_cell_angle_beta   89.191708
_cell_angle_gamma   90.000000

loop_
_atom_site_label
_atom_site_fract_x
_atom_site_fract_y
_atom_site_fract_z
C1  1.569363851038E-01 -4.072653171214E-01 -4.947554292181E-01
C2 -1.569363851038E-01  9.273468287860E-02 -5.244570781921E-03
C3 -1.569363851038E-01  4.072653171214E-01  4.947554292181E-01
C4  1.569363851038E-01 -9.273468287860E-02  5.244570781921E-03
H5  1.673272508027E-01 -3.281791078269E-01 -3.420560186908E-01
H6 -1.673272508027E-01  1.718208921731E-01 -1.579439813092E-01
H7 -1.673272508027E-01  3.281791078269E-01  3.420560186908E-01
H8  1.673272508027E-01 -1.718208921731E-01  1.579439813092E-01
C9  8.472869831126E-02 -4.095116912476E-01  4.244873098184E-01
C10 -8.472869831126E-02  9.048830875239E-02  7.551269018158E-02
C11 -8.472869831126E-02  4.095116912476E-01 -4.244873098184E-01
C12  8.472869831126E-02 -9.048830875239E-02 -7.551269018158E-02
H13  4.078320615663E-02 -3.349814217176E-01 -4.836821566406E-01
H14 -4.078320615663E-02  1.650185782824E-01 -1.631784335944E-02
H15 -4.078320615663E-02  3.349814217176E-01  4.836821566406E-01
H16  4.078320615663E-02 -1.650185782824E-01  1.631784335944E-02
C17  6.848103958099E-02  4.945011526068E-01  2.275972714715E-01
C18 -6.848103958099E-02 -5.498847393234E-03  2.724027285285E-01
C19 -6.848103958099E-02 -4.945011526068E-01 -2.275972714715E-01
C20  6.848103958099E-02  5.498847393234E-03 -2.724027285285E-01
H21  1.138288487184E-02  4.908441581851E-01  1.691061435575E-01
H22 -1.138288487184E-02 -9.155841814919E-03  3.308938564425E-01
H23 -1.138288487184E-02 -4.908441581851E-01 -1.691061435575E-01
H24  1.138288487184E-02  9.155841814919E-03 -3.308938564425E-01
C25  1.257516155062E-01  4.043509595270E-01  1.081752302855E-01
C26 -1.257516155062E-01 -9.564904047299E-02  3.918247697145E-01
C27 -1.257516155062E-01 -4.043509595270E-01 -1.081752302855E-01
C28  1.257516155062E-01  9.564904047299E-02 -3.918247697145E-01
H29  1.146626824478E-01  3.301824357501E-01 -4.767749006083E-02
H30 -1.146626824478E-01 -1.698175642499E-01 -4.523225099392E-01
H31 -1.146626824478E-01 -3.301824357501E-01  4.767749006083E-02
H32  1.146626824478E-01  1.698175642499E-01  4.523225099392E-01
C33  1.979570812965E-01  4.064096079275E-01  1.893968393105E-01
C34 -1.979570812965E-01 -9.359039207248E-02  3.106031606895E-01
C35 -1.979570812965E-01 -4.064096079275E-01 -1.893968393105E-01
C36  1.979570812965E-01  9.359039207248E-02 -3.106031606895E-01
H37  2.412816283119E-01  3.324242658471E-01  9.459315502817E-02
H38 -2.412816283119E-01 -1.675757341529E-01  4.054068449718E-01
H39 -2.412816283119E-01 -3.324242658471E-01 -9.459315502817E-02
H40  2.412816283119E-01  1.675757341529E-01 -4.054068449718E-01
C41  2.150611858581E-01  4.983194139057E-01  3.906070627556E-01
C42 -2.150611858581E-01 -1.680586094253E-03  1.093929372444E-01
C43 -2.150611858581E-01 -4.983194139057E-01 -3.906070627556E-01
C44  2.150611858581E-01  1.680586094253E-03 -1.093929372444E-01
C45  2.918700658405E-01  4.990625589750E-01  4.781196550745E-01
C46 -2.918700658405E-01 -9.374410249506E-04  2.188034492545E-02
C47 -2.918700658405E-01 -4.990625589750E-01 -4.781196550745E-01
C48  2.918700658405E-01  9.374410249503E-04 -2.188034492545E-02
C49  3.052602224969E-01 -4.350906327076E-01 -2.997050380172E-01
C50 -3.052602224969E-01  6.490936729239E-02 -2.002949619828E-01
C51 -3.052602224969E-01  4.350906327076E-01  2.997050380172E-01
C52  3.052602224969E-01 -6.490936729239E-02  2.002949619828E-01
H53  2.585556360595E-01 -3.997573933430E-01 -1.899696475994E-01
H54 -2.585556360595E-01  1.002426066570E-01 -3.100303524006E-01
H55 -2.585556360595E-01  3.997573933430E-01  1.899696475994E-01
H56  2.585556360595E-01 -1.002426066570E-01  3.100303524006E-01
C57  3.756969892387E-01 -4.140916896194E-01 -2.209487953877E-01
C58 -3.756969892387E-01  8.590831038063E-02 -2.790512046123E-01
C59 -3.756969892387E-01  4.140916896194E-01  2.209487953877E-01
C60  3.756969892387E-01 -8.590831038063E-02  2.790512046123E-01
H61  3.842175235956E-01 -3.604540903097E-01 -5.286048295634E-02
H62 -3.842175235956E-01  1.395459096903E-01 -4.471395170437E-01
H63 -3.842175235956E-01  3.604540903097E-01  5.286048295634E-02
H64  3.842175235956E-01 -1.395459096903E-01  4.471395170437E-01
C65  4.392033462089E-01 -4.564993454453E-01 -3.574968390328E-01
C66 -4.392033462089E-01  4.350065455473E-02 -1.425031609672E-01
C67 -4.392033462089E-01  4.564993454453E-01  3.574968390328E-01
C68  4.392033462089E-01 -4.350065455473E-02  1.425031609672E-01
C69  4.267276440491E-01  4.665992711167E-01  4.237383049833E-01
C70 -4.267276440491E-01 -3.340072888333E-02  7.626169501671E-02
C71 -4.267276440491E-01 -4.665992711167E-01 -4.237383049833E-01
C72  4.267276440491E-01  3.340072888333E-02 -7.626169501671E-02
C73  3.522818904015E-01  4.441450145478E-01  3.491186347157E-01
C74 -3.522818904015E-01 -5.585498545215E-02  1.508813652843E-01
C75 -3.522818904015E-01 -4.441450145478E-01 -3.491186347157E-01
C76  3.522818904015E-01  5.585498545215E-02 -1.508813652843E-01
H77  3.451415472873E-01  3.897137906665E-01  1.807166725748E-01
H78 -3.451415472873E-01 -1.102862093335E-01  3.192833274252E-01
H79 -3.451415472873E-01 -3.897137906665E-01 -1.807166725748E-01
H80  3.451415472873E-01  1.102862093335E-01 -3.192833274252E-01
C81 -4.881596568264E-01 -4.240657038602E-01 -2.861200518182E-01
C82  4.881596568264E-01  7.593429613977E-02 -2.138799481818E-01
C83  4.881596568264E-01  4.240657038602E-01  2.861200518182E-01
C84 -4.881596568264E-01 -7.593429613977E-02  2.138799481818E-01
H85 -4.792969858488E-01 -3.650072224357E-01 -1.203390254622E-01
H86  4.792969858488E-01  1.349927775643E-01 -3.796609745378E-01
H87  4.792969858488E-01  3.650072224357E-01  1.203390254622E-01
H88 -4.792969858488E-01 -1.349927775643E-01  3.796609745378E-01


#===END

data_OPT_STEP_54

_symmetry_space_group_name_H-M 'P 1'
_cell_length_a     17.89034286
_cell_length_b      6.91726803
_cell_length_c      5.96921188
_cell_angle_alpha   90.000000
_cell_angle_beta   89.123857
_cell_angle_gamma   90.000000

loop_
_atom_site_label
_atom_site_fract_x
_atom_site_fract_y
_atom_site_fract_z
C1  1.571181431368E-01 -4.079698817837E-01 -4.940832110798E-01
C2 -1.571181431368E-01  9.203011821635E-02 -5.916788920217E-03
C3 -1.571181431368E-01  4.079698817836E-01  4.940832110798E-01
C4  1.571181431368E-01 -9.203011821635E-02  5.916788920217E-03
H5  1.673495353764E-01 -3.294950477539E-01 -3.406809247483E-01
H6 -1.673495353764E-01  1.705049522461E-01 -1.593190752517E-01
H7 -1.673495353764E-01  3.294950477539E-01  3.406809247483E-01
H8  1.673495353764E-01 -1.705049522461E-01  1.593190752517E-01
C9  8.500070542144E-02 -4.102843859330E-01  4.250166690524E-01
C10 -8.500070542144E-02  8.971561406699E-02  7.498333094762E-02
C11 -8.500070542144E-02  4.102843859330E-01 -4.250166690524E-01
C12  8.500070542144E-02 -8.971561406699E-02 -7.498333094762E-02
H13  4.099971102123E-02 -3.363305593465E-01 -4.826089800338E-01
H14 -4.099971102123E-02  1.636694406535E-01 -1.739101996615E-02
H15 -4.099971102123E-02  3.363305593465E-01  4.826089800338E-01
H16  4.099971102123E-02 -1.636694406535E-01  1.739101996615E-02
C17  6.892088988789E-02  4.944200979759E-01  2.273566833016E-01
C18 -6.892088988789E-02 -5.579902024117E-03  2.726433166984E-01
C19 -6.892088988789E-02 -4.944200979759E-01 -2.273566833016E-01
C20  6.892088988789E-02  5.579902024116E-03 -2.726433166984E-01
H21  1.190415251452E-02  4.906890328723E-01  1.686967894136E-01
H22 -1.190415251452E-02 -9.310967127720E-03  3.313032105864E-01
H23 -1.190415251452E-02 -4.906890328723E-01 -1.686967894136E-01
H24  1.190415251452E-02  9.310967127720E-03 -3.313032105864E-01
C25  1.262671384632E-01  4.050341784380E-01  1.073236226528E-01
C26 -1.262671384632E-01 -9.496582156196E-02  3.926763773472E-01
C27 -1.262671384632E-01 -4.050341784380E-01 -1.073236226528E-01
C28  1.262671384632E-01  9.496582156196E-02 -3.926763773472E-01
H29  1.153332069242E-01  3.315442714604E-01 -4.925651176870E-02
H30 -1.153332069242E-01 -1.684557285396E-01 -4.507434882313E-01
H31 -1.153332069242E-01 -3.315442714604E-01  4.925651176870E-02
H32  1.153332069242E-01  1.684557285396E-01  4.507434882313E-01
C33  1.983683950036E-01  4.070944670088E-01  1.887584757672E-01
C34 -1.983683950036E-01 -9.290553299117E-02  3.112415242328E-01
C35 -1.983683950036E-01 -4.070944670088E-01 -1.887584757672E-01
C36  1.983683950036E-01  9.290553299117E-02 -3.112415242328E-01
H37  2.417457715304E-01  3.337685387195E-01  9.333849504543E-02
H38 -2.417457715304E-01 -1.662314612805E-01  4.066615049546E-01
H39 -2.417457715304E-01 -3.337685387195E-01 -9.333849504543E-02
H40  2.417457715304E-01  1.662314612805E-01 -4.066615049546E-01
C41  2.153141460136E-01  4.982975599768E-01  3.907295646971E-01
C42 -2.153141460136E-01 -1.702440023249E-03  1.092704353029E-01
C43 -2.153141460136E-01 -4.982975599768E-01 -3.907295646971E-01
C44  2.153141460136E-01  1.702440023248E-03 -1.092704353029E-01
C45  2.920387808298E-01  4.990889726940E-01  4.783413392189E-01
C46 -2.920387808298E-01 -9.110273060361E-04  2.165866078109E-02
C47 -2.920387808298E-01 -4.990889726940E-01 -4.783413392189E-01
C48  2.920387808298E-01  9.110273060359E-04 -2.165866078109E-02
C49  3.053804995518E-01 -4.346592513519E-01 -2.993347426782E-01
C50 -3.053804995518E-01  6.534074864806E-02 -2.006652573218E-01
C51 -3.053804995518E-01  4.346592513519E-01  2.993347426782E-01
C52  3.053804995518E-01 -6.534074864806E-02  2.006652573218E-01
H53  2.587109119622E-01 -3.989916701372E-01 -1.894397387472E-01
H54 -2.587109119622E-01  1.010083298628E-01 -3.105602612528E-01
H55 -2.587109119622E-01  3.989916701372E-01  1.894397387472E-01
H56  2.587109119622E-01 -1.010083298628E-01  3.105602612528E-01
C57  3.757387170834E-01 -4.136132761773E-01 -2.205655523741E-01
C58 -3.757387170834E-01  8.638672382273E-02 -2.794344476259E-01
C59 -3.757387170834E-01  4.136132761773E-01  2.205655523741E-01
C60  3.757387170834E-01 -8.638672382273E-02  2.794344476259E-01
H61  3.842098141988E-01 -3.597255397353E-01 -5.233153968817E-02
H62 -3.842098141988E-01  1.402744602647E-01 -4.476684603118E-01
H63 -3.842098141988E-01  3.597255397353E-01  5.233153968817E-02
H64  3.842098141988E-01 -1.402744602647E-01  4.476684603118E-01
C65  4.392251765526E-01 -4.563115450145E-01 -3.572763398571E-01
C66 -4.392251765526E-01  4.368845498552E-02 -1.427236601429E-01
C67 -4.392251765526E-01  4.563115450145E-01  3.572763398571E-01
C68  4.392251765526E-01 -4.368845498552E-02  1.427236601429E-01
C69  4.268014203370E-01  4.664922293729E-01  4.237956919517E-01
C70 -4.268014203370E-01 -3.350777062712E-02  7.620430804827E-02
C71 -4.268014203370E-01 -4.664922293729E-01 -4.237956919517E-01
C72  4.268014203370E-01  3.350777062712E-02 -7.620430804827E-02
C73  3.524338294123E-01  4.438904209993E-01  3.492362645100E-01
C74 -3.524338294123E-01 -5.610957900071E-02  1.507637354900E-01
C75 -3.524338294123E-01 -4.438904209993E-01 -3.492362645100E-01
C76  3.524338294123E-01  5.610957900071E-02 -1.507637354900E-01
H77  3.453609383308E-01  3.891188430656E-01  1.807135005446E-01
H78 -3.453609383308E-01 -1.108811569344E-01  3.192864994554E-01
H79 -3.453609383308E-01 -3.891188430656E-01 -1.807135005446E-01
H80  3.453609383308E-01  1.108811569344E-01 -3.192864994554E-01
C81 -4.882161727688E-01 -4.237473695100E-01 -2.859672045971E-01
C82  4.882161727688E-01  7.625263049000E-02 -2.140327954029E-01
C83  4.882161727688E-01  4.237473695100E-01  2.859672045971E-01
C84 -4.882161727688E-01 -7.625263049000E-02  2.140327954029E-01
H85 -4.794016804222E-01 -3.644099372148E-01 -1.200707085003E-01
H86  4.794016804222E-01  1.355900627852E-01 -3.799292914997E-01
H87  4.794016804222E-01  3.644099372148E-01  1.200707085003E-01
H88 -4.794016804222E-01 -1.355900627852E-01  3.799292914997E-01


#===END

data_OPT_STEP_55

_symmetry_space_group_name_H-M 'P 1'
_cell_length_a     17.89099008
_cell_length_b      6.91620789
_cell_length_c      5.97037477
_cell_angle_alpha   90.000000
_cell_angle_beta   89.122032
_cell_angle_gamma   90.000000

loop_
_atom_site_label
_atom_site_fract_x
_atom_site_fract_y
_atom_site_fract_z
C1  1.571239516353E-01 -4.079952183231E-01 -4.941322175120E-01
C2 -1.571239516353E-01  9.200478167689E-02 -5.867782488022E-03
C3 -1.571239516353E-01  4.079952183231E-01  4.941322175120E-01
C4  1.571239516353E-01 -9.200478167689E-02  5.867782488022E-03
H5  1.673581777113E-01 -3.295088592787E-01 -3.407620568551E-01
H6 -1.673581777113E-01  1.704911407213E-01 -1.592379431449E-01
H7 -1.673581777113E-01  3.295088592787E-01  3.407620568551E-01
H8  1.673581777113E-01 -1.704911407213E-01  1.592379431449E-01
C9  8.501107878365E-02 -4.103157654979E-01  4.249707712447E-01
C10 -8.501107878365E-02  8.968423450207E-02  7.502922875528E-02
C11 -8.501107878365E-02  4.103157654979E-01 -4.249707712447E-01
C12  8.501107878365E-02 -8.968423450207E-02 -7.502922875528E-02
H13  4.101409686232E-02 -3.363619902195E-01 -4.826658541240E-01
H14 -4.101409686232E-02  1.636380097805E-01 -1.733414587599E-02
H15 -4.101409686232E-02  3.363619902195E-01  4.826658541240E-01
H16  4.101409686232E-02 -1.636380097805E-01  1.733414587599E-02
C17  6.893128200753E-02  4.943932874586E-01  2.273178460191E-01
C18 -6.893128200753E-02 -5.606712541375E-03  2.726821539809E-01
C19 -6.893128200753E-02 -4.943932874586E-01 -2.273178460191E-01
C20  6.893128200753E-02  5.606712541374E-03 -2.726821539809E-01
H21  1.191786998615E-02  4.906959594875E-01  1.686629129176E-01
H22 -1.191786998615E-02 -9.304040512509E-03  3.313370870824E-01
H23 -1.191786998615E-02 -4.906959594875E-01 -1.686629129176E-01
H24  1.191786998615E-02  9.304040512509E-03 -3.313370870824E-01
C25  1.262700472005E-01  4.049644406513E-01  1.073290361017E-01
C26 -1.262700472005E-01 -9.503555934869E-02  3.926709638983E-01
C27 -1.262700472005E-01 -4.049644406513E-01 -1.073290361017E-01
C28  1.262700472005E-01  9.503555934869E-02 -3.926709638983E-01
H29  1.153334917954E-01  3.313959806854E-01 -4.915910725820E-02
H30 -1.153334917954E-01 -1.686040193146E-01 -4.508408927418E-01
H31 -1.153334917954E-01 -3.313959806854E-01  4.915910725820E-02
H32  1.153334917954E-01  1.686040193146E-01  4.508408927418E-01
C33  1.983675770555E-01  4.070241220058E-01  1.887432351116E-01
C34 -1.983675770555E-01 -9.297587799421E-02  3.112567648884E-01
C35 -1.983675770555E-01 -4.070241220058E-01 -1.887432351116E-01
C36  1.983675770555E-01  9.297587799421E-02 -3.112567648884E-01
H37  2.417431108270E-01  3.336831029370E-01  9.336521320939E-02
H38 -2.417431108270E-01 -1.663168970630E-01  4.066347867906E-01
H39 -2.417431108270E-01 -3.336831029370E-01 -9.336521320939E-02
H40  2.417431108270E-01  1.663168970630E-01 -4.066347867906E-01
C41  2.153163575589E-01  4.982675156833E-01  3.906727595156E-01
C42 -2.153163575589E-01 -1.732484316708E-03  1.093272404844E-01
C43 -2.153163575589E-01 -4.982675156833E-01 -3.906727595156E-01
C44  2.153163575589E-01  1.732484316707E-03 -1.093272404844E-01
C45  2.920382878414E-01  4.990922778942E-01  4.782507122330E-01
C46 -2.920382878414E-01 -9.077221057688E-04  2.174928776700E-02
C47 -2.920382878414E-01 -4.990922778942E-01 -4.782507122330E-01
C48  2.920382878414E-01  9.077221057686E-04 -2.174928776700E-02
C49  3.053688292168E-01 -4.346675061804E-01 -2.994577685989E-01
C50 -3.053688292168E-01  6.533249381964E-02 -2.005422314011E-01
C51 -3.053688292168E-01  4.346675061804E-01  2.994577685989E-01
C52  3.053688292168E-01 -6.533249381964E-02  2.005422314011E-01
H53  2.586947590954E-01 -3.989449484163E-01 -1.896242013661E-01
H54 -2.586947590954E-01  1.010550515837E-01 -3.103757986339E-01
H55 -2.586947590954E-01  3.989449484163E-01  1.896242013661E-01
H56  2.586947590954E-01 -1.010550515837E-01  3.103757986339E-01
C57  3.757222734893E-01 -4.136321515852E-01 -2.206632353899E-01
C58 -3.757222734893E-01  8.636784841485E-02 -2.793367646101E-01
C59 -3.757222734893E-01  4.136321515852E-01  2.206632353899E-01
C60  3.757222734893E-01 -8.636784841485E-02  2.793367646101E-01
H61  3.841840307773E-01 -3.596987265416E-01 -5.247600983220E-02
H62 -3.841840307773E-01  1.403012734584E-01 -4.475239901678E-01
H63 -3.841840307773E-01  3.596987265416E-01  5.247600983220E-02
H64  3.841840307773E-01 -1.403012734584E-01  4.475239901678E-01
C65  4.392167434109E-01 -4.563165927801E-01 -3.573302892452E-01
C66 -4.392167434109E-01  4.368340721991E-02 -1.426697107548E-01
C67 -4.392167434109E-01  4.563165927801E-01  3.573302892452E-01
C68  4.392167434109E-01 -4.368340721991E-02  1.426697107548E-01
C69  4.268044847075E-01  4.664890761720E-01  4.237719260913E-01
C70 -4.268044847075E-01 -3.351092382803E-02  7.622807390873E-02
C71 -4.268044847075E-01 -4.664890761720E-01 -4.237719260913E-01
C72  4.268044847075E-01  3.351092382803E-02 -7.622807390873E-02
C73  3.524392579018E-01  4.438909013207E-01  3.491881994526E-01
C74 -3.524392579018E-01 -5.610909867934E-02  1.508118005474E-01
C75 -3.524392579018E-01 -4.438909013207E-01 -3.491881994526E-01
C76  3.524392579018E-01  5.610909867934E-02 -1.508118005474E-01
H77  3.453744563346E-01  3.891006900281E-01  1.807074863572E-01
H78 -3.453744563346E-01 -1.108993099719E-01  3.192925136428E-01
H79 -3.453744563346E-01 -3.891006900281E-01 -1.807074863572E-01
H80  3.453744563346E-01  1.108993099719E-01 -3.192925136428E-01
C81 -4.882284709184E-01 -4.237530735449E-01 -2.859982136787E-01
C82  4.882284709184E-01  7.624692645513E-02 -2.140017863213E-01
C83  4.882284709184E-01  4.237530735449E-01  2.859982136787E-01
C84 -4.882284709184E-01 -7.624692645514E-02  2.140017863213E-01
H85 -4.794239149286E-01 -3.644071175585E-01 -1.201335742771E-01
H86  4.794239149286E-01  1.355928824415E-01 -3.798664257229E-01
H87  4.794239149286E-01  3.644071175585E-01  1.201335742771E-01
H88 -4.794239149286E-01 -1.355928824415E-01  3.798664257229E-01


#===END

data_OPT_STEP_56

_symmetry_space_group_name_H-M 'P 1'
_cell_length_a     17.89065285
_cell_length_b      6.91617258
_cell_length_c      5.97065856
_cell_angle_alpha   90.000000
_cell_angle_beta   89.127621
_cell_angle_gamma   90.000000

loop_
_atom_site_label
_atom_site_fract_x
_atom_site_fract_y
_atom_site_fract_z
C1  1.571181639573E-01 -4.079780642618E-01 -4.941340931591E-01
C2 -1.571181639573E-01  9.202193573825E-02 -5.865906840855E-03
C3 -1.571181639573E-01  4.079780642618E-01  4.941340931591E-01
C4  1.571181639573E-01 -9.202193573825E-02  5.865906840855E-03
H5  1.673542375199E-01 -3.294837470012E-01 -3.407784999026E-01
H6 -1.673542375199E-01  1.705162529988E-01 -1.592215000974E-01
H7 -1.673542375199E-01  3.294837470012E-01  3.407784999026E-01
H8  1.673542375199E-01 -1.705162529988E-01  1.592215000974E-01
C9  8.500233393127E-02 -4.103048371561E-01  4.249650005659E-01
C10 -8.500233393127E-02  8.969516284385E-02  7.503499943407E-02
C11 -8.500233393127E-02  4.103048371561E-01 -4.249650005659E-01
C12  8.500233393127E-02 -8.969516284385E-02 -7.503499943407E-02
H13  4.100457718706E-02 -3.363589914812E-01 -4.826839176322E-01
H14 -4.100457718706E-02  1.636410085188E-01 -1.731608236781E-02
H15 -4.100457718706E-02  3.363589914812E-01  4.826839176322E-01
H16  4.100457718706E-02 -1.636410085188E-01  1.731608236781E-02
C17  6.891838119635E-02  4.943926501122E-01  2.273335253043E-01
C18 -6.891838119635E-02 -5.607349887771E-03  2.726664746957E-01
C19 -6.891838119635E-02 -4.943926501122E-01 -2.273335253043E-01
C20  6.891838119635E-02  5.607349887771E-03 -2.726664746957E-01
H21  1.190227208751E-02  4.907119331885E-01  1.686744277431E-01
H22 -1.190227208751E-02 -9.288066811487E-03  3.313255722569E-01
H23 -1.190227208751E-02 -4.907119331885E-01 -1.686744277431E-01
H24  1.190227208751E-02  9.288066811487E-03 -3.313255722569E-01
C25  1.262559351190E-01  4.049521110480E-01  1.073691409939E-01
C26 -1.262559351190E-01 -9.504788895204E-02  3.926308590061E-01
C27 -1.262559351190E-01 -4.049521110480E-01 -1.073691409939E-01
C28  1.262559351190E-01  9.504788895204E-02 -3.926308590061E-01
H29  1.153212738477E-01  3.313874920809E-01 -4.912614813020E-02
H30 -1.153212738477E-01 -1.686125079191E-01 -4.508738518698E-01
H31 -1.153212738477E-01 -3.313874920809E-01  4.912614813020E-02
H32  1.153212738477E-01  1.686125079191E-01  4.508738518698E-01
C33  1.983562778727E-01  4.070139827453E-01  1.887900896888E-01
C34 -1.983562778727E-01 -9.298601725472E-02  3.112099103112E-01
C35 -1.983562778727E-01 -4.070139827453E-01 -1.887900896888E-01
C36  1.983562778727E-01  9.298601725472E-02 -3.112099103112E-01
H37  2.417318416816E-01  3.336636961926E-01  9.343461280775E-02
H38 -2.417318416816E-01 -1.663363038074E-01  4.065653871923E-01
H39 -2.417318416816E-01 -3.336636961926E-01 -9.343461280775E-02
H40  2.417318416816E-01  1.663363038074E-01 -4.065653871923E-01
C41  2.153099788811E-01  4.982757938494E-01  3.906968987745E-01
C42 -2.153099788811E-01 -1.724206150608E-03  1.093031012255E-01
C43 -2.153099788811E-01 -4.982757938494E-01 -3.906968987745E-01
C44  2.153099788811E-01  1.724206150608E-03 -1.093031012255E-01
C45  2.920361840005E-01  4.990911504901E-01  4.782751016979E-01
C46 -2.920361840005E-01 -9.088495098746E-04  2.172489830214E-02
C47 -2.920361840005E-01 -4.990911504901E-01 -4.782751016979E-01
C48  2.920361840005E-01  9.088495098744E-04 -2.172489830214E-02
C49  3.053771366919E-01 -4.346808638516E-01 -2.994404693136E-01
C50 -3.053771366919E-01  6.531913614838E-02 -2.005595306864E-01
C51 -3.053771366919E-01  4.346808638516E-01  2.994404693136E-01
C52  3.053771366919E-01 -6.531913614838E-02  2.005595306864E-01
H53  2.587064844081E-01 -3.989690438362E-01 -1.896064166136E-01
H54 -2.587064844081E-01  1.010309561638E-01 -3.103935833864E-01
H55 -2.587064844081E-01  3.989690438362E-01  1.896064166136E-01
H56  2.587064844081E-01 -1.010309561638E-01  3.103935833864E-01
C57  3.757348170027E-01 -4.136527461909E-01 -2.206551559413E-01
C58 -3.757348170027E-01  8.634725380908E-02 -2.793448440587E-01
C59 -3.757348170027E-01  4.136527461909E-01  2.206551559413E-01
C60  3.757348170027E-01 -8.634725380908E-02  2.793448440587E-01
H61  3.842011551611E-01 -3.597363228345E-01 -5.247228436782E-02
H62 -3.842011551611E-01  1.402636771655E-01 -4.475277156322E-01
H63 -3.842011551611E-01  3.597363228345E-01  5.247228436782E-02
H64  3.842011551611E-01 -1.402636771655E-01  4.475277156322E-01
C65  4.392231483745E-01 -4.563235073803E-01 -3.573279084893E-01
C66 -4.392231483745E-01  4.367649261969E-02 -1.426720915107E-01
C67 -4.392231483745E-01  4.563235073803E-01  3.573279084893E-01
C68  4.392231483745E-01 -4.367649261969E-02  1.426720915107E-01
C69  4.268010160440E-01  4.664976031077E-01  4.237811358966E-01
C70 -4.268010160440E-01 -3.350239689227E-02  7.621886410340E-02
C71 -4.268010160440E-01 -4.664976031077E-01 -4.237811358966E-01
C72  4.268010160440E-01  3.350239689227E-02 -7.621886410340E-02
C73  3.524326580282E-01  4.439001774635E-01  3.492097921510E-01
C74 -3.524326580282E-01 -5.609982253646E-02  1.507902078490E-01
C75 -3.524326580282E-01 -4.439001774635E-01 -3.492097921510E-01
C76  3.524326580282E-01  5.609982253646E-02 -1.507902078490E-01
H77  3.453631467285E-01  3.891276686957E-01  1.807343577030E-01
H78 -3.453631467285E-01 -1.108723313043E-01  3.192656422970E-01
H79 -3.453631467285E-01 -3.891276686957E-01 -1.807343577030E-01
H80  3.453631467285E-01  1.108723313043E-01 -3.192656422970E-01
C81 -4.882182813258E-01 -4.237741627228E-01 -2.860016830167E-01
C82  4.882182813258E-01  7.622583727722E-02 -2.139983169833E-01
C83  4.882182813258E-01  4.237741627228E-01  2.860016830167E-01
C84 -4.882182813258E-01 -7.622583727722E-02  2.139983169833E-01
H85 -4.794072319583E-01 -3.644563965755E-01 -1.201358569760E-01
H86  4.794072319583E-01  1.355436034245E-01 -3.798641430240E-01
H87  4.794072319583E-01  3.644563965755E-01  1.201358569760E-01
H88 -4.794072319583E-01 -1.355436034245E-01  3.798641430240E-01


#===END

data_OPT_STEP_57

_symmetry_space_group_name_H-M 'P 1'
_cell_length_a     17.89073065
_cell_length_b      6.91623260
_cell_length_c      5.97058904
_cell_angle_alpha   90.000000
_cell_angle_beta   89.127372
_cell_angle_gamma   90.000000

loop_
_atom_site_label
_atom_site_fract_x
_atom_site_fract_y
_atom_site_fract_z
C1  1.571198864409E-01 -4.079857193660E-01 -4.941269437583E-01
C2 -1.571198864409E-01  9.201428063404E-02 -5.873056241739E-03
C3 -1.571198864409E-01  4.079857193660E-01  4.941269437583E-01
C4  1.571198864409E-01 -9.201428063404E-02  5.873056241739E-03
H5  1.673538960406E-01 -3.295040044186E-01 -3.407612138558E-01
H6 -1.673538960406E-01  1.704959955814E-01 -1.592387861442E-01
H7 -1.673538960406E-01  3.295040044186E-01  3.407612138558E-01
H8  1.673538960406E-01 -1.704959955814E-01  1.592387861442E-01
C9  8.500464389442E-02 -4.103114179093E-01  4.249704124622E-01
C10 -8.500464389442E-02  8.968858209067E-02  7.502958753781E-02
C11 -8.500464389442E-02  4.103114179093E-01 -4.249704124622E-01
C12  8.500464389442E-02 -8.968858209067E-02 -7.502958753781E-02
H13  4.100544484595E-02 -3.363874297344E-01 -4.826664977348E-01
H14 -4.100544484595E-02  1.636125702656E-01 -1.733350226523E-02
H15 -4.100544484595E-02  3.363874297344E-01  4.826664977348E-01
H16  4.100544484595E-02 -1.636125702656E-01  1.733350226523E-02
C17  6.892137002563E-02  4.943976263177E-01  2.273318551823E-01
C18 -6.892137002563E-02 -5.602373682272E-03  2.726681448177E-01
C19 -6.892137002563E-02 -4.943976263177E-01 -2.273318551823E-01
C20  6.892137002563E-02  5.602373682272E-03 -2.726681448177E-01
H21  1.190477188934E-02  4.907254734445E-01  1.686737019326E-01
H22 -1.190477188934E-02 -9.274526555547E-03  3.313262980674E-01
H23 -1.190477188934E-02 -4.907254734445E-01 -1.686737019326E-01
H24  1.190477188934E-02  9.274526555546E-03 -3.313262980674E-01
C25  1.262593338083E-01  4.049667969719E-01  1.073594338735E-01
C26 -1.262593338083E-01 -9.503320302809E-02  3.926405661265E-01
C27 -1.262593338083E-01 -4.049667969719E-01 -1.073594338735E-01
C28  1.262593338083E-01  9.503320302809E-02 -3.926405661265E-01
H29  1.153273545975E-01  3.314109841212E-01 -4.914708562968E-02
H30 -1.153273545975E-01 -1.685890158788E-01 -4.508529143703E-01
H31 -1.153273545975E-01 -3.314109841212E-01  4.914708562968E-02
H32  1.153273545975E-01  1.685890158788E-01  4.508529143703E-01
C33  1.983590408732E-01  4.070278117634E-01  1.887823273683E-01
C34 -1.983590408732E-01 -9.297218823658E-02  3.112176726317E-01
C35 -1.983590408732E-01 -4.070278117634E-01 -1.887823273683E-01
C36  1.983590408732E-01  9.297218823658E-02 -3.112176726317E-01
H37  2.417343928596E-01  3.336840975124E-01  9.342379276939E-02
H38 -2.417343928596E-01 -1.663159024876E-01  4.065762072306E-01
H39 -2.417343928596E-01 -3.336840975124E-01 -9.342379276939E-02
H40  2.417343928596E-01  1.663159024876E-01 -4.065762072306E-01
C41  2.153121335333E-01  4.982794926960E-01  3.906986536659E-01
C42 -2.153121335333E-01 -1.720507304000E-03  1.093013463341E-01
C43 -2.153121335333E-01 -4.982794926960E-01 -3.906986536659E-01
C44  2.153121335333E-01  1.720507304000E-03 -1.093013463341E-01
C45  2.920375115029E-01  4.990878369169E-01  4.782813248077E-01
C46 -2.920375115029E-01 -9.121630830979E-04  2.171867519233E-02
C47 -2.920375115029E-01 -4.990878369169E-01 -4.782813248077E-01
C48  2.920375115029E-01  9.121630830977E-04 -2.171867519233E-02
C49  3.053789630912E-01 -4.346738289767E-01 -2.994352244822E-01
C50 -3.053789630912E-01  6.532617102330E-02 -2.005647755178E-01
C51 -3.053789630912E-01  4.346738289767E-01  2.994352244822E-01
C52  3.053789630912E-01 -6.532617102330E-02  2.005647755178E-01
H53  2.587088184051E-01 -3.989632143667E-01 -1.895986653203E-01
H54 -2.587088184051E-01  1.010367856333E-01 -3.104013346797E-01
H55 -2.587088184051E-01  3.989632143667E-01  1.895986653203E-01
H56  2.587088184051E-01 -1.010367856333E-01  3.104013346797E-01
C57  3.757361087932E-01 -4.136425084301E-01 -2.206510785476E-01
C58 -3.757361087932E-01  8.635749156993E-02 -2.793489214524E-01
C59 -3.757361087932E-01  4.136425084301E-01  2.206510785476E-01
C60  3.757361087932E-01 -8.635749156993E-02  2.793489214524E-01
H61  3.842014369600E-01 -3.597227768087E-01 -5.246847118460E-02
H62 -3.842014369600E-01  1.402772231913E-01 -4.475315288154E-01
H63 -3.842014369600E-01  3.597227768087E-01  5.246847118460E-02
H64  3.842014369600E-01 -1.402772231913E-01  4.475315288154E-01
C65  4.392236957040E-01 -4.563158468807E-01 -3.573263505485E-01
C66 -4.392236957040E-01  4.368415311927E-02 -1.426736494515E-01
C67 -4.392236957040E-01  4.563158468807E-01  3.573263505485E-01
C68  4.392236957040E-01 -4.368415311927E-02  1.426736494515E-01
C69  4.268011739512E-01  4.664932494462E-01  4.237847570680E-01
C70 -4.268011739512E-01 -3.350675055378E-02  7.621524293204E-02
C71 -4.268011739512E-01 -4.664932494462E-01 -4.237847570680E-01
C72  4.268011739512E-01  3.350675055378E-02 -7.621524293204E-02
C73  3.524334032724E-01  4.438907583317E-01  3.492169070091E-01
C74 -3.524334032724E-01 -5.610924166829E-02  1.507830929909E-01
C75 -3.524334032724E-01 -4.438907583317E-01 -3.492169070091E-01
C76  3.524334032724E-01  5.610924166829E-02 -1.507830929909E-01
H77  3.453642947340E-01  3.891096221964E-01  1.807448001624E-01
H78 -3.453642947340E-01 -1.108903778036E-01  3.192551998376E-01
H79 -3.453642947340E-01 -3.891096221964E-01 -1.807448001624E-01
H80  3.453642947340E-01  1.108903778036E-01 -3.192551998376E-01
C81 -4.882178436583E-01 -4.237640816810E-01 -2.860023254709E-01
C82  4.882178436583E-01  7.623591831900E-02 -2.139976745291E-01
C83  4.882178436583E-01  4.237640816810E-01  2.860023254709E-01
C84 -4.882178436583E-01 -7.623591831900E-02  2.139976745291E-01
H85 -4.794066841988E-01 -3.644391562295E-01 -1.201386579831E-01
H86  4.794066841988E-01  1.355608437705E-01 -3.798613420169E-01
H87  4.794066841988E-01  3.644391562295E-01  1.201386579831E-01
H88 -4.794066841988E-01 -1.355608437705E-01  3.798613420169E-01


#===END

data_OPT_STEP_58

_symmetry_space_group_name_H-M 'P 1'
_cell_length_a     17.89199123
_cell_length_b      6.91619366
_cell_length_c      5.97020931
_cell_angle_alpha   90.000000
_cell_angle_beta   89.129064
_cell_angle_gamma   90.000000

loop_
_atom_site_label
_atom_site_fract_x
_atom_site_fract_y
_atom_site_fract_z
C1  1.571365728262E-01 -4.080564485617E-01 -4.940837795197E-01
C2 -1.571365728262E-01  9.194355143833E-02 -5.916220480348E-03
C3 -1.571365728262E-01  4.080564485617E-01  4.940837795197E-01
C4  1.571365728262E-01 -9.194355143833E-02  5.916220480348E-03
H5  1.673664985975E-01 -3.296141119825E-01 -3.406814236194E-01
H6 -1.673664985975E-01  1.703858880175E-01 -1.593185763806E-01
H7 -1.673664985975E-01  3.296141119825E-01  3.406814236194E-01
H8  1.673664985975E-01 -1.703858880175E-01  1.593185763806E-01
C9  8.502486157888E-02 -4.103883874108E-01  4.250106506078E-01
C10 -8.502486157888E-02  8.961161258917E-02  7.498934939221E-02
C11 -8.502486157888E-02  4.103883874108E-01 -4.250106506078E-01
C12  8.502486157888E-02 -8.961161258917E-02 -7.498934939221E-02
H13  4.102532211042E-02 -3.365121010202E-01 -4.825879074799E-01
H14 -4.102532211042E-02  1.634878989798E-01 -1.741209252011E-02
H15 -4.102532211042E-02  3.365121010202E-01  4.825879074799E-01
H16  4.102532211042E-02 -1.634878989798E-01  1.741209252011E-02
C17  6.894664645591E-02  4.943739401081E-01  2.273202371497E-01
C18 -6.894664645591E-02 -5.626059891917E-03  2.726797628503E-01
C19 -6.894664645591E-02 -4.943739401081E-01 -2.273202371497E-01
C20  6.894664645591E-02  5.626059891917E-03 -2.726797628503E-01
H21  1.193475330770E-02  4.906959189354E-01  1.686516363830E-01
H22 -1.193475330770E-02 -9.304081064574E-03  3.313483636170E-01
H23 -1.193475330770E-02 -4.906959189354E-01 -1.686516363830E-01
H24  1.193475330770E-02  9.304081064574E-03 -3.313483636170E-01
C25  1.262859997380E-01  4.050090464449E-01  1.072973449116E-01
C26 -1.262859997380E-01 -9.499095355510E-02  3.927026550884E-01
C27 -1.262859997380E-01 -4.050090464449E-01 -1.072973449116E-01
C28  1.262859997380E-01  9.499095355510E-02 -3.927026550884E-01
H29  1.153589723225E-01  3.314938316848E-01 -4.924838290162E-02
H30 -1.153589723225E-01 -1.685061683152E-01 -4.507516170984E-01
H31 -1.153589723225E-01 -3.314938316848E-01  4.924838290162E-02
H32  1.153589723225E-01  1.685061683152E-01  4.507516170984E-01
C33  1.983816531123E-01  4.070769476277E-01  1.887214957646E-01
C34 -1.983816531123E-01 -9.292305237234E-02  3.112785042354E-01
C35 -1.983816531123E-01 -4.070769476277E-01 -1.887214957646E-01
C36  1.983816531123E-01  9.292305237234E-02 -3.112785042354E-01
H37  2.417579643309E-01  3.337893330142E-01  9.331516841909E-02
H38 -2.417579643309E-01 -1.662106669858E-01  4.066848315809E-01
H39 -2.417579643309E-01 -3.337893330142E-01 -9.331516841909E-02
H40  2.417579643309E-01  1.662106669858E-01 -4.066848315809E-01
C41  2.153298180526E-01  4.982689694745E-01  3.906944937495E-01
C42 -2.153298180526E-01 -1.731030525495E-03  1.093055062505E-01
C43 -2.153298180526E-01 -4.982689694745E-01 -3.906944937495E-01
C44  2.153298180526E-01  1.731030525495E-03 -1.093055062505E-01
C45  2.920513535736E-01  4.990799439305E-01  4.782803341343E-01
C46 -2.920513535736E-01 -9.200560694840E-04  2.171966586573E-02
C47 -2.920513535736E-01 -4.990799439305E-01 -4.782803341343E-01
C48  2.920513535736E-01  9.200560694838E-04 -2.171966586573E-02
C49  3.053955545833E-01 -4.346667979387E-01 -2.994294457640E-01
C50 -3.053955545833E-01  6.533320206135E-02 -2.005705542360E-01
C51 -3.053955545833E-01  4.346667979387E-01  2.994294457640E-01
C52  3.053955545833E-01 -6.533320206135E-02  2.005705542360E-01
H53  2.587311320535E-01 -3.989336982020E-01 -1.895910435551E-01
H54 -2.587311320535E-01  1.010663017980E-01 -3.104089564449E-01
H55 -2.587311320535E-01  3.989336982020E-01  1.895910435551E-01
H56  2.587311320535E-01 -1.010663017980E-01  3.104089564449E-01
C57  3.757485001566E-01 -4.136344418206E-01 -2.206405364537E-01
C58 -3.757485001566E-01  8.636555817939E-02 -2.793594635463E-01
C59 -3.757485001566E-01  4.136344418206E-01  2.206405364537E-01
C60  3.757485001566E-01 -8.636555817939E-02  2.793594635463E-01
H61  3.842145895138E-01 -3.596996389124E-01 -5.245457719000E-02
H62 -3.842145895138E-01  1.403003610876E-01 -4.475454228100E-01
H63 -3.842145895138E-01  3.596996389124E-01  5.245457719000E-02
H64  3.842145895138E-01 -1.403003610876E-01  4.475454228100E-01
C65  4.392299029093E-01 -4.563166302912E-01 -3.573191846872E-01
C66 -4.392299029093E-01  4.368336970884E-02 -1.426808153128E-01
C67 -4.392299029093E-01  4.563166302912E-01  3.573191846872E-01
C68  4.392299029093E-01 -4.368336970884E-02  1.426808153128E-01
C69  4.268055372194E-01  4.664823782552E-01  4.237844657507E-01
C70 -4.268055372194E-01 -3.351762174481E-02  7.621553424931E-02
C71 -4.268055372194E-01 -4.664823782552E-01 -4.237844657507E-01
C72  4.268055372194E-01  3.351762174481E-02 -7.621553424931E-02
C73  3.524418783634E-01  4.438700701586E-01  3.492159097191E-01
C74 -3.524418783634E-01 -5.612992984142E-02  1.507840902809E-01
C75 -3.524418783634E-01 -4.438700701586E-01 -3.492159097191E-01
C76  3.524418783634E-01  5.612992984142E-02 -1.507840902809E-01
H77  3.453736123685E-01  3.890720816865E-01  1.807406705027E-01
H78 -3.453736123685E-01 -1.109279183135E-01  3.192593294973E-01
H79 -3.453736123685E-01 -3.890720816865E-01 -1.807406705027E-01
H80  3.453736123685E-01  1.109279183135E-01 -3.192593294973E-01
C81 -4.882165086861E-01 -4.237527048319E-01 -2.859952949638E-01
C82  4.882165086861E-01  7.624729516807E-02 -2.140047050362E-01
C83  4.882165086861E-01  4.237527048319E-01  2.859952949638E-01
C84 -4.882165086861E-01 -7.624729516807E-02  2.140047050362E-01
H85 -4.794055099459E-01 -3.644194614683E-01 -1.201252298096E-01
H86  4.794055099459E-01  1.355805385317E-01 -3.798747701904E-01
H87  4.794055099459E-01  3.644194614683E-01  1.201252298096E-01
H88 -4.794055099459E-01 -1.355805385317E-01  3.798747701904E-01


#===END

data_OPT_STEP_59

_symmetry_space_group_name_H-M 'P 1'
_cell_length_a     17.89230332
_cell_length_b      6.91600403
_cell_length_c      5.97014117
_cell_angle_alpha   90.000000
_cell_angle_beta   89.130396
_cell_angle_gamma   90.000000

loop_
_atom_site_label
_atom_site_fract_x
_atom_site_fract_y
_atom_site_fract_z
C1  1.571403744947E-01 -4.080808028549E-01 -4.940685921932E-01
C2 -1.571403744947E-01  9.191919714505E-02 -5.931407806822E-03
C3 -1.571403744947E-01  4.080808028549E-01  4.940685921932E-01
C4  1.571403744947E-01 -9.191919714505E-02  5.931407806822E-03
H5  1.673699986422E-01 -3.296577191180E-01 -3.406496887292E-01
H6 -1.673699986422E-01  1.703422808820E-01 -1.593503112708E-01
H7 -1.673699986422E-01  3.296577191180E-01  3.406496887292E-01
H8  1.673699986422E-01 -1.703422808820E-01  1.593503112708E-01
C9  8.502946686285E-02 -4.104104118005E-01  4.250237950005E-01
C10 -8.502946686285E-02  8.958958819952E-02  7.497620499951E-02
C11 -8.502946686285E-02  4.104104118005E-01 -4.250237950005E-01
C12  8.502946686285E-02 -8.958958819952E-02 -7.497620499951E-02
H13  4.102928104958E-02 -3.365577464463E-01 -4.825565095480E-01
H14 -4.102928104958E-02  1.634422535537E-01 -1.744349045198E-02
H15 -4.102928104958E-02  3.365577464463E-01  4.825565095480E-01
H16  4.102928104958E-02 -1.634422535537E-01  1.744349045198E-02
C17  6.895167071618E-02  4.943738991838E-01  2.273138774442E-01
C18 -6.895167071618E-02 -5.626100816183E-03  2.726861225558E-01
C19 -6.895167071618E-02 -4.943738991838E-01 -2.273138774442E-01
C20  6.895167071618E-02  5.626100816182E-03 -2.726861225558E-01
H21  1.193993844854E-02  4.906978863218E-01  1.686457135568E-01
H22 -1.193993844854E-02 -9.302113678157E-03  3.313542864432E-01
H23 -1.193993844854E-02 -4.906978863218E-01 -1.686457135568E-01
H24  1.193993844854E-02  9.302113678156E-03 -3.313542864432E-01
C25  1.262906226708E-01  4.050313145841E-01  1.072741017228E-01
C26 -1.262906226708E-01 -9.496868541586E-02  3.927258982772E-01
C27 -1.262906226708E-01 -4.050313145841E-01 -1.072741017228E-01
C28  1.262906226708E-01  9.496868541586E-02 -3.927258982772E-01
H29  1.153643892786E-01  3.315317747187E-01 -4.928696297419E-02
H30 -1.153643892786E-01 -1.684682252813E-01 -4.507130370258E-01
H31 -1.153643892786E-01 -3.315317747187E-01  4.928696297419E-02
H32  1.153643892786E-01  1.684682252813E-01  4.507130370258E-01
C33  1.983853350262E-01  4.070995195923E-01  1.886995145773E-01
C34 -1.983853350262E-01 -9.290048040773E-02  3.113004854227E-01
C35 -1.983853350262E-01 -4.070995195923E-01 -1.886995145773E-01
C36  1.983853350262E-01  9.290048040773E-02 -3.113004854227E-01
H37  2.417610481954E-01  3.338294809377E-01  9.327790236530E-02
H38 -2.417610481954E-01 -1.661705190623E-01  4.067220976347E-01
H39 -2.417610481954E-01 -3.338294809377E-01 -9.327790236530E-02
H40  2.417610481954E-01  1.661705190623E-01 -4.067220976347E-01
C41  2.153334252037E-01  4.982687149563E-01  3.906906229919E-01
C42 -2.153334252037E-01 -1.731285043683E-03  1.093093770081E-01
C43 -2.153334252037E-01 -4.982687149563E-01 -3.906906229919E-01
C44  2.153334252037E-01  1.731285043683E-03 -1.093093770081E-01
C45  2.920543542713E-01  4.990768240680E-01  4.782787457219E-01
C46 -2.920543542713E-01 -9.231759320311E-04  2.172125427812E-02
C47 -2.920543542713E-01 -4.990768240680E-01 -4.782787457219E-01
C48  2.920543542713E-01  9.231759320309E-04 -2.172125427812E-02
C49  3.054000556505E-01 -4.346610244310E-01 -2.994316410300E-01
C50 -3.054000556505E-01  6.533897556895E-02 -2.005683589700E-01
C51 -3.054000556505E-01  4.346610244310E-01  2.994316410300E-01
C52  3.054000556505E-01 -6.533897556895E-02  2.005683589700E-01
H53  2.587374537747E-01 -3.989204672124E-01 -1.895937472974E-01
H54 -2.587374537747E-01  1.010795327876E-01 -3.104062527026E-01
H55 -2.587374537747E-01  3.989204672124E-01  1.895937472974E-01
H56  2.587374537747E-01 -1.010795327876E-01  3.104062527026E-01
C57  3.757521562805E-01 -4.136281562908E-01 -2.206406887629E-01
C58 -3.757521562805E-01  8.637184370918E-02 -2.793593112371E-01
C59 -3.757521562804E-01  4.136281562908E-01  2.206406887629E-01
C60  3.757521562805E-01 -8.637184370918E-02  2.793593112371E-01
H61  3.842185306973E-01 -3.596863664357E-01 -5.245482170065E-02
H62 -3.842185306973E-01  1.403136335643E-01 -4.475451782994E-01
H63 -3.842185306973E-01  3.596863664357E-01  5.245482170065E-02
H64  3.842185306973E-01 -1.403136335643E-01  4.475451782994E-01
C65  4.392317963854E-01 -4.563144511895E-01 -3.573188665155E-01
C66 -4.392317963854E-01  4.368554881046E-02 -1.426811334845E-01
C67 -4.392317963854E-01  4.563144511895E-01  3.573188665155E-01
C68  4.392317963854E-01 -4.368554881046E-02  1.426811334845E-01
C69  4.268061289081E-01  4.664777753650E-01  4.237845748051E-01
C70 -4.268061289081E-01 -3.352222463496E-02  7.621542519488E-02
C71 -4.268061289081E-01 -4.664777753650E-01 -4.237845748051E-01
C72  4.268061289081E-01  3.352222463496E-02 -7.621542519488E-02
C73  3.524432212083E-01  4.438617138520E-01  3.492159731203E-01
C74 -3.524432212083E-01 -5.613828614798E-02  1.507840268797E-01
C75 -3.524432212083E-01 -4.438617138520E-01 -3.492159731203E-01
C76  3.524432212083E-01  5.613828614798E-02 -1.507840268797E-01
H77  3.453746782940E-01  3.890545695375E-01  1.807416968357E-01
H78 -3.453746782940E-01 -1.109454304625E-01  3.192583031643E-01
H79 -3.453746782940E-01 -3.890545695375E-01 -1.807416968357E-01
H80  3.453746782940E-01  1.109454304625E-01 -3.192583031643E-01
C81 -4.882153750055E-01 -4.237471560402E-01 -2.859943224813E-01
C82  4.882153750055E-01  7.625284395985E-02 -2.140056775187E-01
C83  4.882153750055E-01  4.237471560402E-01  2.859943224813E-01
C84 -4.882153750055E-01 -7.625284395985E-02  2.140056775187E-01
H85 -4.794041597941E-01 -3.644074056155E-01 -1.201239409372E-01
H86  4.794041597941E-01  1.355925943845E-01 -3.798760590628E-01
H87  4.794041597941E-01  3.644074056155E-01  1.201239409372E-01
H88 -4.794041597941E-01 -1.355925943845E-01  3.798760590628E-01


#===END

data_OPT_STEP_60

_symmetry_space_group_name_H-M 'P 1'
_cell_length_a     17.89229818
_cell_length_b      6.91594922
_cell_length_c      5.97016330
_cell_angle_alpha   90.000000
_cell_angle_beta   89.131053
_cell_angle_gamma   90.000000

loop_
_atom_site_label
_atom_site_fract_x
_atom_site_fract_y
_atom_site_fract_z
C1  1.571397650347E-01 -4.080861274194E-01 -4.940633832652E-01
C2 -1.571397650347E-01  9.191387258056E-02 -5.936616734824E-03
C3 -1.571397650347E-01  4.080861274194E-01  4.940633832652E-01
C4  1.571397650347E-01 -9.191387258056E-02  5.936616734824E-03
H5  1.673700389121E-01 -3.296691364256E-01 -3.406411707150E-01
H6 -1.673700389121E-01  1.703308635744E-01 -1.593588292850E-01
H7 -1.673700389121E-01  3.296691364256E-01  3.406411707150E-01
H8  1.673700389121E-01 -1.703308635744E-01  1.593588292850E-01
C9  8.502884001286E-02 -4.104127753521E-01  4.250288810813E-01
C10 -8.502884001286E-02  8.958722464793E-02  7.497111891870E-02
C11 -8.502884001286E-02  4.104127753521E-01 -4.250288810813E-01
C12  8.502884001286E-02 -8.958722464793E-02 -7.497111891870E-02
H13  4.102890630003E-02 -3.365650580983E-01 -4.825488088981E-01
H14 -4.102890630003E-02  1.634349419017E-01 -1.745119110190E-02
H15 -4.102890630003E-02  3.365650580983E-01  4.825488088981E-01
H16  4.102890630003E-02 -1.634349419017E-01  1.745119110190E-02
C17  6.895030899446E-02  4.943779784587E-01  2.273154507045E-01
C18 -6.895030899446E-02 -5.622021541344E-03  2.726845492955E-01
C19 -6.895030899446E-02 -4.943779784587E-01 -2.273154507045E-01
C20  6.895030899446E-02  5.622021541344E-03 -2.726845492955E-01
H21  1.193809419740E-02  4.907066307871E-01  1.686492307526E-01
H22 -1.193809419740E-02 -9.293369212936E-03  3.313507692474E-01
H23 -1.193809419740E-02 -4.907066307871E-01 -1.686492307526E-01
H24  1.193809419740E-02  9.293369212936E-03 -3.313507692474E-01
C25  1.262886321183E-01  4.050390633172E-01  1.072720533293E-01
C26 -1.262886321183E-01 -9.496093668280E-02  3.927279466707E-01
C27 -1.262886321183E-01 -4.050390633172E-01 -1.072720533293E-01
C28  1.262886321183E-01  9.496093668280E-02 -3.927279466707E-01
H29  1.153615158852E-01  3.315423928320E-01 -4.929015609185E-02
H30 -1.153615158852E-01 -1.684576071680E-01 -4.507098439082E-01
H31 -1.153615158852E-01 -3.315423928320E-01  4.929015609185E-02
H32  1.153615158852E-01  1.684576071680E-01  4.507098439082E-01
C33  1.983837366244E-01  4.071062823526E-01  1.886965784299E-01
C34 -1.983837366244E-01 -9.289371764740E-02  3.113034215701E-01
C35 -1.983837366244E-01 -4.071062823526E-01 -1.886965784299E-01
C36  1.983837366244E-01  9.289371764740E-02 -3.113034215701E-01
H37  2.417590397561E-01  3.338397249935E-01  9.327171118784E-02
H38 -2.417590397561E-01 -1.661602750065E-01  4.067282888122E-01
H39 -2.417590397561E-01 -3.338397249935E-01 -9.327171118784E-02
H40  2.417590397561E-01  1.661602750065E-01 -4.067282888122E-01
C41  2.153324390616E-01  4.982688228859E-01  3.906914422411E-01
C42 -2.153324390616E-01 -1.731177114137E-03  1.093085577589E-01
C43 -2.153324390616E-01 -4.982688228859E-01 -3.906914422411E-01
C44  2.153324390616E-01  1.731177114137E-03 -1.093085577589E-01
C45  2.920537019647E-01  4.990763594504E-01  4.782788331716E-01
C46 -2.920537019647E-01 -9.236405495542E-04  2.172116682843E-02
C47 -2.920537019647E-01 -4.990763594504E-01 -4.782788331716E-01
C48  2.920537019647E-01  9.236405495539E-04 -2.172116682843E-02
C49  3.054004653923E-01 -4.346608839702E-01 -2.994325048709E-01
C50 -3.054004653923E-01  6.533911602981E-02 -2.005674951291E-01
C51 -3.054004653923E-01  4.346608839702E-01  2.994325048709E-01
C52  3.054004653923E-01 -6.533911602981E-02  2.005674951291E-01
H53  2.587384562111E-01 -3.989188695230E-01 -1.895948815821E-01
H54 -2.587384562111E-01  1.010811304770E-01 -3.104051184179E-01
H55 -2.587384562111E-01  3.989188695230E-01  1.895948815821E-01
H56  2.587384562111E-01 -1.010811304770E-01  3.104051184179E-01
C57  3.757529222420E-01 -4.136277388167E-01 -2.206418335060E-01
C58 -3.757529222420E-01  8.637226118325E-02 -2.793581664940E-01
C59 -3.757529222420E-01  4.136277388167E-01  2.206418335060E-01
C60  3.757529222420E-01 -8.637226118325E-02  2.793581664940E-01
H61  3.842200371178E-01 -3.596846123914E-01 -5.245689368234E-02
H62 -3.842200371178E-01  1.403153876086E-01 -4.475431063177E-01
H63 -3.842200371178E-01  3.596846123914E-01  5.245689368234E-02
H64  3.842200371178E-01 -1.403153876086E-01  4.475431063177E-01
C65  4.392321562902E-01 -4.563148770737E-01 -3.573194116235E-01
C66 -4.392321562902E-01  4.368512292627E-02 -1.426805883765E-01
C67 -4.392321562902E-01  4.563148770737E-01  3.573194116235E-01
C68  4.392321562902E-01 -4.368512292627E-02  1.426805883765E-01
C69  4.268055019445E-01  4.664772841517E-01  4.237846196748E-01
C70 -4.268055019445E-01 -3.352271584825E-02  7.621538032524E-02
C71 -4.268055019445E-01 -4.664772841517E-01 -4.237846196748E-01
C72  4.268055019445E-01  3.352271584825E-02 -7.621538032524E-02
C73  3.524420582932E-01  4.438611086063E-01  3.492162159538E-01
C74 -3.524420582932E-01 -5.613889139369E-02  1.507837840462E-01
C75 -3.524420582932E-01 -4.438611086063E-01 -3.492162159538E-01
C76  3.524420582932E-01  5.613889139369E-02 -1.507837840462E-01
H77  3.453727899015E-01  3.890508953639E-01  1.807435057551E-01
H78 -3.453727899015E-01 -1.109491046361E-01  3.192564942449E-01
H79 -3.453727899015E-01 -3.890508953639E-01 -1.807435057551E-01
H80  3.453727899015E-01  1.109491046361E-01 -3.192564942449E-01
C81 -4.882145450151E-01 -4.237463454080E-01 -2.859951478436E-01
C82  4.882145450151E-01  7.625365459205E-02 -2.140048521564E-01
C83  4.882145450151E-01  4.237463454080E-01  2.859951478436E-01
C84 -4.882145450151E-01 -7.625365459205E-02  2.140048521564E-01
H85 -4.794030256887E-01 -3.644058277020E-01 -1.201250446821E-01
H86  4.794030256887E-01  1.355941722980E-01 -3.798749553179E-01
H87  4.794030256887E-01  3.644058277020E-01  1.201250446821E-01
H88 -4.794030256887E-01 -1.355941722980E-01  3.798749553179E-01


#===END

data_OPT_STEP_61

_symmetry_space_group_name_H-M 'P 1'
_cell_length_a     17.89229818
_cell_length_b      6.91594922
_cell_length_c      5.97016330
_cell_angle_alpha   90.000000
_cell_angle_beta   89.131053
_cell_angle_gamma   90.000000

loop_
_atom_site_label
_atom_site_fract_x
_atom_site_fract_y
_atom_site_fract_z
C1  1.571397650347E-01 -4.080861274194E-01 -4.940633832652E-01
C2 -1.571397650347E-01  9.191387258056E-02 -5.936616734824E-03
C3 -1.571397650347E-01  4.080861274194E-01  4.940633832652E-01
C4  1.571397650347E-01 -9.191387258056E-02  5.936616734824E-03
H5  1.673700389121E-01 -3.296691364256E-01 -3.406411707150E-01
H6 -1.673700389121E-01  1.703308635744E-01 -1.593588292850E-01
H7 -1.673700389121E-01  3.296691364256E-01  3.406411707150E-01
H8  1.673700389121E-01 -1.703308635744E-01  1.593588292850E-01
C9  8.502884001286E-02 -4.104127753521E-01  4.250288810813E-01
C10 -8.502884001286E-02  8.958722464793E-02  7.497111891870E-02
C11 -8.502884001286E-02  4.104127753521E-01 -4.250288810813E-01
C12  8.502884001286E-02 -8.958722464793E-02 -7.497111891870E-02
H13  4.102890630003E-02 -3.365650580983E-01 -4.825488088981E-01
H14 -4.102890630003E-02  1.634349419017E-01 -1.745119110190E-02
H15 -4.102890630003E-02  3.365650580983E-01  4.825488088981E-01
H16  4.102890630003E-02 -1.634349419017E-01  1.745119110190E-02
C17  6.895030899446E-02  4.943779784587E-01  2.273154507045E-01
C18 -6.895030899446E-02 -5.622021541344E-03  2.726845492955E-01
C19 -6.895030899446E-02 -4.943779784587E-01 -2.273154507045E-01
C20  6.895030899446E-02  5.622021541344E-03 -2.726845492955E-01
H21  1.193809419740E-02  4.907066307871E-01  1.686492307526E-01
H22 -1.193809419740E-02 -9.293369212936E-03  3.313507692474E-01
H23 -1.193809419740E-02 -4.907066307871E-01 -1.686492307526E-01
H24  1.193809419740E-02  9.293369212936E-03 -3.313507692474E-01
C25  1.262886321183E-01  4.050390633172E-01  1.072720533293E-01
C26 -1.262886321183E-01 -9.496093668280E-02  3.927279466707E-01
C27 -1.262886321183E-01 -4.050390633172E-01 -1.072720533293E-01
C28  1.262886321183E-01  9.496093668280E-02 -3.927279466707E-01
H29  1.153615158852E-01  3.315423928320E-01 -4.929015609185E-02
H30 -1.153615158852E-01 -1.684576071680E-01 -4.507098439082E-01
H31 -1.153615158852E-01 -3.315423928320E-01  4.929015609185E-02
H32  1.153615158852E-01  1.684576071680E-01  4.507098439082E-01
C33  1.983837366244E-01  4.071062823526E-01  1.886965784299E-01
C34 -1.983837366244E-01 -9.289371764740E-02  3.113034215701E-01
C35 -1.983837366244E-01 -4.071062823526E-01 -1.886965784299E-01
C36  1.983837366244E-01  9.289371764740E-02 -3.113034215701E-01
H37  2.417590397561E-01  3.338397249935E-01  9.327171118784E-02
H38 -2.417590397561E-01 -1.661602750065E-01  4.067282888122E-01
H39 -2.417590397561E-01 -3.338397249935E-01 -9.327171118784E-02
H40  2.417590397561E-01  1.661602750065E-01 -4.067282888122E-01
C41  2.153324390616E-01  4.982688228859E-01  3.906914422411E-01
C42 -2.153324390616E-01 -1.731177114137E-03  1.093085577589E-01
C43 -2.153324390616E-01 -4.982688228859E-01 -3.906914422411E-01
C44  2.153324390616E-01  1.731177114137E-03 -1.093085577589E-01
C45  2.920537019647E-01  4.990763594504E-01  4.782788331716E-01
C46 -2.920537019647E-01 -9.236405495542E-04  2.172116682843E-02
C47 -2.920537019647E-01 -4.990763594504E-01 -4.782788331716E-01
C48  2.920537019647E-01  9.236405495539E-04 -2.172116682843E-02
C49  3.054004653923E-01 -4.346608839702E-01 -2.994325048709E-01
C50 -3.054004653923E-01  6.533911602981E-02 -2.005674951291E-01
C51 -3.054004653923E-01  4.346608839702E-01  2.994325048709E-01
C52  3.054004653923E-01 -6.533911602981E-02  2.005674951291E-01
H53  2.587384562111E-01 -3.989188695230E-01 -1.895948815821E-01
H54 -2.587384562111E-01  1.010811304770E-01 -3.104051184179E-01
H55 -2.587384562111E-01  3.989188695230E-01  1.895948815821E-01
H56  2.587384562111E-01 -1.010811304770E-01  3.104051184179E-01
C57  3.757529222420E-01 -4.136277388167E-01 -2.206418335060E-01
C58 -3.757529222420E-01  8.637226118325E-02 -2.793581664940E-01
C59 -3.757529222420E-01  4.136277388167E-01  2.206418335060E-01
C60  3.757529222420E-01 -8.637226118325E-02  2.793581664940E-01
H61  3.842200371178E-01 -3.596846123914E-01 -5.245689368234E-02
H62 -3.842200371178E-01  1.403153876086E-01 -4.475431063177E-01
H63 -3.842200371178E-01  3.596846123914E-01  5.245689368234E-02
H64  3.842200371178E-01 -1.403153876086E-01  4.475431063177E-01
C65  4.392321562902E-01 -4.563148770737E-01 -3.573194116235E-01
C66 -4.392321562902E-01  4.368512292627E-02 -1.426805883765E-01
C67 -4.392321562902E-01  4.563148770737E-01  3.573194116235E-01
C68  4.392321562902E-01 -4.368512292627E-02  1.426805883765E-01
C69  4.268055019445E-01  4.664772841517E-01  4.237846196748E-01
C70 -4.268055019445E-01 -3.352271584825E-02  7.621538032524E-02
C71 -4.268055019445E-01 -4.664772841517E-01 -4.237846196748E-01
C72  4.268055019445E-01  3.352271584825E-02 -7.621538032524E-02
C73  3.524420582932E-01  4.438611086063E-01  3.492162159538E-01
C74 -3.524420582932E-01 -5.613889139369E-02  1.507837840462E-01
C75 -3.524420582932E-01 -4.438611086063E-01 -3.492162159538E-01
C76  3.524420582932E-01  5.613889139369E-02 -1.507837840462E-01
H77  3.453727899015E-01  3.890508953639E-01  1.807435057551E-01
H78 -3.453727899015E-01 -1.109491046361E-01  3.192564942449E-01
H79 -3.453727899015E-01 -3.890508953639E-01 -1.807435057551E-01
H80  3.453727899015E-01  1.109491046361E-01 -3.192564942449E-01
C81 -4.882145450151E-01 -4.237463454080E-01 -2.859951478436E-01
C82  4.882145450151E-01  7.625365459205E-02 -2.140048521564E-01
C83  4.882145450151E-01  4.237463454080E-01  2.859951478436E-01
C84 -4.882145450151E-01 -7.625365459205E-02  2.140048521564E-01
H85 -4.794030256887E-01 -3.644058277020E-01 -1.201250446821E-01
H86  4.794030256887E-01  1.355941722980E-01 -3.798749553179E-01
H87  4.794030256887E-01  3.644058277020E-01  1.201250446821E-01
H88 -4.794030256887E-01 -1.355941722980E-01  3.798749553179E-01


#===END
