###############################################################################
#
#                    CRYSTAL17 CIF FILE
#
###############################################################################

data_OPT_STEP_1

_symmetry_space_group_name_H-M 'P 1'
_cell_length_a      6.30600000
_cell_length_b      7.69700000
_cell_length_c     16.48000000
_cell_angle_alpha   98.769997
_cell_angle_beta   91.250000
_cell_angle_gamma   95.809998

loop_
_atom_site_label
_atom_site_fract_x
_atom_site_fract_y
_atom_site_fract_z
C1  3.360000000000E-02  2.365000000000E-01  3.296600000000E-01
C2 -3.360000000000E-02 -2.365000000000E-01 -3.296600000000E-01
C3  8.440000000000E-02  3.453000000000E-01  4.023000000000E-01
C4 -8.440000000000E-02 -3.453000000000E-01 -4.023000000000E-01
C5  2.919000000000E-01  4.442000000000E-01  4.161300000000E-01
C6 -2.919000000000E-01 -4.442000000000E-01 -4.161300000000E-01
C7  4.389000000000E-01  4.293000000000E-01  3.574500000000E-01
C8 -4.389000000000E-01 -4.293000000000E-01 -3.574500000000E-01
C9  3.944000000000E-01  3.167000000000E-01  2.800400000000E-01
C10 -3.944000000000E-01 -3.167000000000E-01 -2.800400000000E-01
C11  1.854000000000E-01  2.159000000000E-01  2.658600000000E-01
C12 -1.854000000000E-01 -2.159000000000E-01 -2.658600000000E-01
C13  1.384000000000E-01  1.053000000000E-01  1.917800000000E-01
C14 -1.384000000000E-01 -1.053000000000E-01 -1.917800000000E-01
C15  2.889000000000E-01  8.430000000000E-02  1.295200000000E-01
C16 -2.889000000000E-01 -8.430000000000E-02 -1.295200000000E-01
C17  4.992000000000E-01  1.857000000000E-01  1.435400000000E-01
C18 -4.992000000000E-01 -1.857000000000E-01 -1.435400000000E-01
C19 -4.588000000000E-01  2.984000000000E-01  2.188900000000E-01
C20  4.588000000000E-01 -2.984000000000E-01 -2.188900000000E-01
C21  2.445000000000E-01 -2.930000000000E-02  5.449000000000E-02
C22 -2.445000000000E-01  2.930000000000E-02 -5.449000000000E-02
C23  3.951000000000E-01 -5.100000000000E-02 -7.000000000000E-03
C24 -3.951000000000E-01  5.100000000000E-02  7.000000000000E-03
C25 -3.512000000000E-01  1.645000000000E-01  8.197000000000E-02
C26  3.512000000000E-01 -1.645000000000E-01 -8.197000000000E-02
C27 -4.526000000000E-01 -1.129000000000E-01  3.066000000000E-01
C28  4.526000000000E-01  1.129000000000E-01 -3.066000000000E-01
C29 -4.127000000000E-01 -7.170000000000E-02  3.889200000000E-01
C30  4.127000000000E-01  7.170000000000E-02 -3.889200000000E-01
C31 -2.229000000000E-01 -1.218000000000E-01  4.252600000000E-01
C32  2.229000000000E-01  1.218000000000E-01 -4.252600000000E-01
C33 -8.220000000000E-02 -2.096000000000E-01  3.782600000000E-01
C34  8.220000000000E-02  2.096000000000E-01 -3.782600000000E-01
C35 -1.169000000000E-01 -2.567000000000E-01  2.911100000000E-01
C36  1.169000000000E-01  2.567000000000E-01 -2.911100000000E-01
C37 -3.091000000000E-01 -2.059000000000E-01  2.538500000000E-01
C38  3.091000000000E-01  2.059000000000E-01 -2.538500000000E-01
C39 -3.463000000000E-01 -2.500000000000E-01  1.690900000000E-01
C40  3.463000000000E-01  2.500000000000E-01 -1.690900000000E-01
C41 -2.026000000000E-01 -3.408000000000E-01  1.176500000000E-01
C42  2.026000000000E-01  3.408000000000E-01 -1.176500000000E-01
C43 -1.030000000000E-02 -3.909000000000E-01  1.550900000000E-01
C44  1.030000000000E-02  3.909000000000E-01 -1.550900000000E-01
C45  2.500000000000E-02 -3.462000000000E-01  2.412200000000E-01
C46 -2.500000000000E-02  3.462000000000E-01 -2.412200000000E-01
C47 -2.388000000000E-01 -3.843000000000E-01  3.263000000000E-02
C48  2.388000000000E-01  3.843000000000E-01 -3.263000000000E-02
C49 -9.600000000000E-02 -4.745000000000E-01 -1.897000000000E-02
C50  9.600000000000E-02  4.745000000000E-01  1.897000000000E-02
C51  1.320000000000E-01 -4.813000000000E-01  1.045600000000E-01
C52 -1.320000000000E-01  4.813000000000E-01 -1.045600000000E-01
H53 -1.015000000000E-01  1.745000000000E-01  3.212000000000E-01
H54  1.015000000000E-01 -1.745000000000E-01 -3.212000000000E-01
H55 -1.530000000000E-02  3.557000000000E-01  4.431000000000E-01
H56  1.530000000000E-02 -3.557000000000E-01 -4.431000000000E-01
H57  3.251000000000E-01 -4.813000000000E-01  4.657000000000E-01
H58 -3.251000000000E-01  4.813000000000E-01 -4.657000000000E-01
H59 -4.278000000000E-01  4.938000000000E-01  3.676000000000E-01
H60  4.278000000000E-01 -4.938000000000E-01 -3.676000000000E-01
H61  3.700000000000E-03  4.290000000000E-02  1.827000000000E-01
H62 -3.700000000000E-03 -4.290000000000E-02 -1.827000000000E-01
H63 -3.259000000000E-01  3.638000000000E-01  2.281000000000E-01
H64  3.259000000000E-01 -3.638000000000E-01 -2.281000000000E-01
H65  1.103000000000E-01 -9.260000000000E-02  4.520000000000E-02
H66 -1.103000000000E-01  9.260000000000E-02 -4.520000000000E-02
H67 -2.174000000000E-01  2.283000000000E-01  9.120000000000E-02
H68  2.174000000000E-01 -2.283000000000E-01 -9.120000000000E-02
H69  4.241000000000E-01 -8.020000000000E-02  2.838000000000E-01
H70 -4.241000000000E-01  8.020000000000E-02 -2.838000000000E-01
H71  4.921000000000E-01 -1.130000000000E-02  4.218000000000E-01
H72 -4.921000000000E-01  1.130000000000E-02 -4.218000000000E-01
H73 -1.965000000000E-01 -9.340000000000E-02  4.817000000000E-01
H74  1.965000000000E-01  9.340000000000E-02 -4.817000000000E-01
H75  3.960000000000E-02 -2.400000000000E-01  4.031000000000E-01
H76 -3.960000000000E-02  2.400000000000E-01 -4.031000000000E-01
H77 -4.695000000000E-01 -2.188000000000E-01  1.456000000000E-01
H78  4.695000000000E-01  2.188000000000E-01 -1.456000000000E-01
H79  1.474000000000E-01 -3.777000000000E-01  2.653000000000E-01
H80 -1.474000000000E-01  3.777000000000E-01 -2.653000000000E-01
H81 -3.618000000000E-01 -3.526000000000E-01  9.100000000000E-03
H82  3.618000000000E-01  3.526000000000E-01 -9.100000000000E-03
H83  2.544000000000E-01  4.868000000000E-01  1.284000000000E-01
H84 -2.544000000000E-01 -4.868000000000E-01 -1.284000000000E-01


#===END

data_OPT_STEP_2

_symmetry_space_group_name_H-M 'P 1'
_cell_length_a      6.30600000
_cell_length_b      7.69700000
_cell_length_c     16.48000000
_cell_angle_alpha   98.769997
_cell_angle_beta   91.250000
_cell_angle_gamma   95.809998

loop_
_atom_site_label
_atom_site_fract_x
_atom_site_fract_y
_atom_site_fract_z
C1  3.360000000000E-02  2.365000000000E-01  3.296600000000E-01
C2 -3.360000000000E-02 -2.365000000000E-01 -3.296600000000E-01
C3  8.440000000000E-02  3.453000000000E-01  4.023000000000E-01
C4 -8.440000000000E-02 -3.453000000000E-01 -4.023000000000E-01
C5  2.919000000000E-01  4.442000000000E-01  4.161300000000E-01
C6 -2.919000000000E-01 -4.442000000000E-01 -4.161300000000E-01
C7  4.389000000000E-01  4.293000000000E-01  3.574500000000E-01
C8 -4.389000000000E-01 -4.293000000000E-01 -3.574500000000E-01
C9  3.944000000000E-01  3.167000000000E-01  2.800400000000E-01
C10 -3.944000000000E-01 -3.167000000000E-01 -2.800400000000E-01
C11  1.854000000000E-01  2.159000000000E-01  2.658600000000E-01
C12 -1.854000000000E-01 -2.159000000000E-01 -2.658600000000E-01
C13  1.384000000000E-01  1.053000000000E-01  1.917800000000E-01
C14 -1.384000000000E-01 -1.053000000000E-01 -1.917800000000E-01
C15  2.889000000000E-01  8.430000000000E-02  1.295200000000E-01
C16 -2.889000000000E-01 -8.430000000000E-02 -1.295200000000E-01
C17  4.992000000000E-01  1.857000000000E-01  1.435400000000E-01
C18 -4.992000000000E-01 -1.857000000000E-01 -1.435400000000E-01
C19 -4.588000000000E-01  2.984000000000E-01  2.188900000000E-01
C20  4.588000000000E-01 -2.984000000000E-01 -2.188900000000E-01
C21  2.445000000000E-01 -2.930000000000E-02  5.449000000000E-02
C22 -2.445000000000E-01  2.930000000000E-02 -5.449000000000E-02
C23  3.951000000000E-01 -5.100000000000E-02 -7.000000000000E-03
C24 -3.951000000000E-01  5.100000000000E-02  7.000000000000E-03
C25 -3.512000000000E-01  1.645000000000E-01  8.197000000000E-02
C26  3.512000000000E-01 -1.645000000000E-01 -8.197000000000E-02
C27 -4.526000000000E-01 -1.129000000000E-01  3.066000000000E-01
C28  4.526000000000E-01  1.129000000000E-01 -3.066000000000E-01
C29 -4.127000000000E-01 -7.170000000000E-02  3.889200000000E-01
C30  4.127000000000E-01  7.170000000000E-02 -3.889200000000E-01
C31 -2.229000000000E-01 -1.218000000000E-01  4.252600000000E-01
C32  2.229000000000E-01  1.218000000000E-01 -4.252600000000E-01
C33 -8.220000000000E-02 -2.096000000000E-01  3.782600000000E-01
C34  8.220000000000E-02  2.096000000000E-01 -3.782600000000E-01
C35 -1.169000000000E-01 -2.567000000000E-01  2.911100000000E-01
C36  1.169000000000E-01  2.567000000000E-01 -2.911100000000E-01
C37 -3.091000000000E-01 -2.059000000000E-01  2.538500000000E-01
C38  3.091000000000E-01  2.059000000000E-01 -2.538500000000E-01
C39 -3.463000000000E-01 -2.500000000000E-01  1.690900000000E-01
C40  3.463000000000E-01  2.500000000000E-01 -1.690900000000E-01
C41 -2.026000000000E-01 -3.408000000000E-01  1.176500000000E-01
C42  2.026000000000E-01  3.408000000000E-01 -1.176500000000E-01
C43 -1.030000000000E-02 -3.909000000000E-01  1.550900000000E-01
C44  1.030000000000E-02  3.909000000000E-01 -1.550900000000E-01
C45  2.500000000000E-02 -3.462000000000E-01  2.412200000000E-01
C46 -2.500000000000E-02  3.462000000000E-01 -2.412200000000E-01
C47 -2.388000000000E-01 -3.843000000000E-01  3.263000000000E-02
C48  2.388000000000E-01  3.843000000000E-01 -3.263000000000E-02
C49 -9.600000000000E-02 -4.745000000000E-01 -1.897000000000E-02
C50  9.600000000000E-02  4.745000000000E-01  1.897000000000E-02
C51  1.320000000000E-01 -4.813000000000E-01  1.045600000000E-01
C52 -1.320000000000E-01  4.813000000000E-01 -1.045600000000E-01
H53 -1.015000000000E-01  1.745000000000E-01  3.212000000000E-01
H54  1.015000000000E-01 -1.745000000000E-01 -3.212000000000E-01
H55 -1.530000000000E-02  3.557000000000E-01  4.431000000000E-01
H56  1.530000000000E-02 -3.557000000000E-01 -4.431000000000E-01
H57  3.251000000000E-01 -4.813000000000E-01  4.657000000000E-01
H58 -3.251000000000E-01  4.813000000000E-01 -4.657000000000E-01
H59 -4.278000000000E-01  4.938000000000E-01  3.676000000000E-01
H60  4.278000000000E-01 -4.938000000000E-01 -3.676000000000E-01
H61  3.700000000000E-03  4.290000000000E-02  1.827000000000E-01
H62 -3.700000000000E-03 -4.290000000000E-02 -1.827000000000E-01
H63 -3.259000000000E-01  3.638000000000E-01  2.281000000000E-01
H64  3.259000000000E-01 -3.638000000000E-01 -2.281000000000E-01
H65  1.103000000000E-01 -9.260000000000E-02  4.520000000000E-02
H66 -1.103000000000E-01  9.260000000000E-02 -4.520000000000E-02
H67 -2.174000000000E-01  2.283000000000E-01  9.120000000000E-02
H68  2.174000000000E-01 -2.283000000000E-01 -9.120000000000E-02
H69  4.241000000000E-01 -8.020000000000E-02  2.838000000000E-01
H70 -4.241000000000E-01  8.020000000000E-02 -2.838000000000E-01
H71  4.921000000000E-01 -1.130000000000E-02  4.218000000000E-01
H72 -4.921000000000E-01  1.130000000000E-02 -4.218000000000E-01
H73 -1.965000000000E-01 -9.340000000000E-02  4.817000000000E-01
H74  1.965000000000E-01  9.340000000000E-02 -4.817000000000E-01
H75  3.960000000000E-02 -2.400000000000E-01  4.031000000000E-01
H76 -3.960000000000E-02  2.400000000000E-01 -4.031000000000E-01
H77 -4.695000000000E-01 -2.188000000000E-01  1.456000000000E-01
H78  4.695000000000E-01  2.188000000000E-01 -1.456000000000E-01
H79  1.474000000000E-01 -3.777000000000E-01  2.653000000000E-01
H80 -1.474000000000E-01  3.777000000000E-01 -2.653000000000E-01
H81 -3.618000000000E-01 -3.526000000000E-01  9.100000000000E-03
H82  3.618000000000E-01  3.526000000000E-01 -9.100000000000E-03
H83  2.544000000000E-01  4.868000000000E-01  1.284000000000E-01
H84 -2.544000000000E-01 -4.868000000000E-01 -1.284000000000E-01


#===END

data_OPT_STEP_3

_symmetry_space_group_name_H-M 'P 1'
_cell_length_a      6.29760847
_cell_length_b      7.67010860
_cell_length_c     16.44790942
_cell_angle_alpha   98.694736
_cell_angle_beta   91.230701
_cell_angle_gamma   95.842721

loop_
_atom_site_label
_atom_site_fract_x
_atom_site_fract_y
_atom_site_fract_z
C1  3.305014146611E-02  2.361688875588E-01  3.288090322289E-01
C2 -3.305014146611E-02 -2.361688875588E-01 -3.288090322289E-01
C3  8.317557187035E-02  3.460485925118E-01  4.011803293933E-01
C4 -8.317557187035E-02 -3.460485925118E-01 -4.011803293933E-01
C5  2.906595527412E-01  4.444026968868E-01  4.152561642122E-01
C6 -2.906595527412E-01 -4.444026968868E-01 -4.152561642122E-01
C7  4.386199605184E-01  4.298410575515E-01  3.566717173533E-01
C8 -4.386199605184E-01 -4.298410575515E-01 -3.566717173533E-01
C9  3.943522984054E-01  3.162217624833E-01  2.795190425885E-01
C10 -3.943522984054E-01 -3.162217624833E-01 -2.795190425885E-01
C11  1.848250149157E-01  2.165951479441E-01  2.650234792184E-01
C12 -1.848250149157E-01 -2.165951479441E-01 -2.650234792184E-01
C13  1.379653868264E-01  1.049910745069E-01  1.911760872956E-01
C14 -1.379653868264E-01 -1.049910745069E-01 -1.911760872956E-01
C15  2.887675039003E-01  8.463888516443E-02  1.289662180749E-01
C16 -2.887675039003E-01 -8.463888516443E-02 -1.289662180749E-01
C17  4.993694608166E-01  1.849731100016E-01  1.432973241389E-01
C18 -4.993694608166E-01 -1.849731100016E-01 -1.432973241389E-01
C19 -4.578503638243E-01  2.982565013260E-01  2.186629253406E-01
C20  4.578503638243E-01 -2.982565013260E-01 -2.186629253406E-01
C21  2.440495175353E-01 -2.945565972900E-02  5.427890478890E-02
C22 -2.440495175353E-01  2.945565972900E-02 -5.427890478890E-02
C23  3.947100027672E-01 -5.012226358087E-02 -7.226508690677E-03
C24 -3.947100027672E-01  5.012226358087E-02  7.226508690677E-03
C25 -3.507236846920E-01  1.646682319247E-01  8.191647257758E-02
C26  3.507236846920E-01 -1.646682319247E-01 -8.191647257758E-02
C27 -4.521899235133E-01 -1.136745980371E-01  3.058028201505E-01
C28  4.521899235133E-01  1.136745980371E-01 -3.058028201505E-01
C29 -4.117483472827E-01 -7.258469902052E-02  3.882137512090E-01
C30  4.117483472827E-01  7.258469902052E-02 -3.882137512090E-01
C31 -2.222899366716E-01 -1.224658663981E-01  4.246518731072E-01
C32  2.222899366716E-01  1.224658663981E-01 -4.246518731072E-01
C33 -8.092034231676E-02 -2.098783981216E-01  3.775383593041E-01
C34  8.092034231676E-02  2.098783981216E-01 -3.775383593041E-01
C35 -1.159477603756E-01 -2.563798300439E-01  2.903655478212E-01
C36  1.159477603756E-01  2.563798300439E-01 -2.903655478212E-01
C37 -3.086224879779E-01 -2.069154086910E-01  2.532524222064E-01
C38  3.086224879779E-01  2.069154086910E-01 -2.532524222064E-01
C39 -3.460751922205E-01 -2.502174790130E-01  1.686625621386E-01
C40  3.460751922205E-01  2.502174790130E-01 -1.686625621386E-01
C41 -2.025519379131E-01 -3.415267740539E-01  1.173931642622E-01
C42  2.025519379131E-01  3.415267740539E-01 -1.173931642622E-01
C43 -1.021250140264E-02 -3.911898674925E-01  1.547314858326E-01
C44  1.021250140264E-02  3.911898674925E-01 -1.547314858326E-01
C45  2.556131009723E-02 -3.466571065130E-01  2.408182467896E-01
C46 -2.556131009723E-02  3.466571065130E-01 -2.408182467896E-01
C47 -2.390452090059E-01 -3.845177637838E-01  3.238994083985E-02
C48  2.390452090059E-01  3.845177637838E-01 -3.238994083985E-02
C49 -9.632804776661E-02 -4.751850854400E-01 -1.885705538496E-02
C50  9.632804776661E-02  4.751850854400E-01  1.885705538496E-02
C51  1.323345144573E-01 -4.814688810932E-01  1.044244028454E-01
C52 -1.323345144573E-01  4.814688810932E-01 -1.044244028454E-01
H53 -1.064787737165E-01  1.697642522352E-01  3.202112698794E-01
H54  1.064787737165E-01 -1.697642522352E-01 -3.202112698794E-01
H55 -2.070381293417E-02  3.570884249063E-01  4.435337691842E-01
H56  2.070381293417E-02 -3.570884249063E-01 -4.435337691842E-01
H57  3.257363870617E-01 -4.795885047309E-01  4.671504129956E-01
H58 -3.257363870617E-01  4.795885047309E-01 -4.671504129956E-01
H59 -4.228537811375E-01  4.973667163255E-01  3.670460246709E-01
H60  4.228537811375E-01 -4.973667163255E-01 -3.670460246709E-01
H61 -1.434538195833E-03  3.859422447524E-02  1.820001987034E-01
H62  1.434538195833E-03 -3.859422447524E-02 -1.820001987034E-01
H63 -3.194023039619E-01  3.660990059462E-01  2.283358871017E-01
H64  3.194023039619E-01 -3.660990059462E-01 -2.283358871017E-01
H65  1.050012869144E-01 -9.646749819079E-02  4.490046282491E-02
H66 -1.050012869144E-01  9.646749819079E-02 -4.490046282491E-02
H67 -2.118663194373E-01  2.318022008190E-01  9.139303094169E-02
H68  2.118663194373E-01 -2.318022008190E-01 -9.139303094169E-02
H69  4.200017616864E-01 -7.925807320111E-02  2.819163592948E-01
H70 -4.200017616864E-01  7.925807320111E-02 -2.819163592948E-01
H71  4.899458809663E-01 -9.498307821263E-03  4.225939996049E-01
H72 -4.899458809663E-01  9.498307821263E-03 -4.225939996049E-01
H73 -1.948777234745E-01 -9.272475817844E-02  4.833704620062E-01
H74  1.948777234745E-01  9.272475817844E-02 -4.833704620062E-01
H75  4.578703211401E-02 -2.419119222196E-01  4.031933588059E-01
H76 -4.578703211401E-02  2.419119222196E-01 -4.031933588059E-01
H77 -4.736174821969E-01 -2.167902763329E-01  1.441657286978E-01
H78  4.736174821969E-01  2.167902763329E-01 -1.441657286978E-01
H79  1.524532557102E-01 -3.800465755846E-01  2.659089624392E-01
H80 -1.524532557102E-01  3.800465755846E-01 -2.659089624392E-01
H81 -3.664767215827E-01 -3.508604633451E-01  7.825897501365E-03
H82  3.664767215827E-01  3.508604633451E-01 -7.825897501365E-03
H83  2.593468152056E-01  4.848966837809E-01  1.292644045134E-01
H84 -2.593468152056E-01 -4.848966837809E-01 -1.292644045134E-01


#===END

data_OPT_STEP_4

_symmetry_space_group_name_H-M 'P 1'
_cell_length_a      6.37897104
_cell_length_b      7.64856923
_cell_length_c     16.42678181
_cell_angle_alpha   98.696615
_cell_angle_beta   90.939644
_cell_angle_gamma   95.626871

loop_
_atom_site_label
_atom_site_fract_x
_atom_site_fract_y
_atom_site_fract_z
C1  3.542040694101E-02  2.398074844922E-01  3.276215390270E-01
C2 -3.542040694101E-02 -2.398074844922E-01 -3.276215390270E-01
C3  8.609880750667E-02  3.458801127499E-01  4.008114626703E-01
C4 -8.609880750667E-02 -3.458801127499E-01 -4.008114626703E-01
C5  2.882745724596E-01  4.465623827924E-01  4.143974624851E-01
C6 -2.882745724596E-01 -4.465623827924E-01 -4.143974624851E-01
C7  4.360673512192E-01  4.316945095936E-01  3.557856159150E-01
C8 -4.360673512192E-01 -4.316945095936E-01 -3.557856159150E-01
C9  3.883242491362E-01  3.254689088788E-01  2.768226026401E-01
C10 -3.883242491362E-01 -3.254689088788E-01 -2.768226026401E-01
C11  1.871412254117E-01  2.177778003458E-01  2.645373217587E-01
C12 -1.871412254117E-01 -2.177778003458E-01 -2.645373217587E-01
C13  1.413242937912E-01  1.058406716837E-01  1.907994509527E-01
C14 -1.413242937912E-01 -1.058406716837E-01 -1.907994509527E-01
C15  2.914547794687E-01  8.461551015561E-02  1.287554402597E-01
C16 -2.914547794687E-01 -8.461551015561E-02 -1.287554402597E-01
C17  4.944850672007E-01  1.906218962785E-01  1.413792590646E-01
C18 -4.944850672007E-01 -1.906218962785E-01 -1.413792590646E-01
C19 -4.620887773128E-01  3.037786423572E-01  2.170601391490E-01
C20  4.620887773128E-01 -3.037786423572E-01 -2.170601391490E-01
C21  2.474667049860E-01 -2.974546637129E-02  5.449775853850E-02
C22 -2.474667049860E-01  2.974546637129E-02 -5.449775853850E-02
C23  3.995625010121E-01 -5.500452663620E-02 -5.816424129606E-03
C24 -3.995625010121E-01  5.500452663620E-02  5.816424129606E-03
C25 -3.540418020662E-01  1.659913511213E-01  8.139518240723E-02
C26  3.540418020662E-01 -1.659913511213E-01 -8.139518240723E-02
C27 -4.495191033338E-01 -1.138109976550E-01  3.052575521416E-01
C28  4.495191033338E-01  1.138109976550E-01 -3.052575521416E-01
C29 -4.101082228889E-01 -7.368965704146E-02  3.878150678522E-01
C30  4.101082228889E-01  7.368965704146E-02 -3.878150678522E-01
C31 -2.241488971562E-01 -1.238532041171E-01  4.241779235566E-01
C32  2.241488971562E-01  1.238532041171E-01 -4.241779235566E-01
C33 -8.426654190450E-02 -2.126724444471E-01  3.768911586696E-01
C34  8.426654190450E-02  2.126724444471E-01 -3.768911586696E-01
C35 -1.209402832296E-01 -2.618442956259E-01  2.899506411543E-01
C36  1.209402832296E-01  2.618442956259E-01 -2.899506411543E-01
C37 -3.057332079158E-01 -2.058848185877E-01  2.527087011686E-01
C38  3.057332079158E-01  2.058848185877E-01 -2.527087011686E-01
C39 -3.437755436630E-01 -2.505465488683E-01  1.685216207054E-01
C40  3.437755436630E-01  2.505465488683E-01 -1.685216207054E-01
C41 -1.999784218757E-01 -3.401403539339E-01  1.171128383070E-01
C42  1.999784218757E-01  3.401403539339E-01 -1.171128383070E-01
C43 -1.267569682998E-02 -3.926329907428E-01  1.543179168415E-01
C44  1.267569682998E-02  3.926329907428E-01 -1.543179168415E-01
C45  2.282553362786E-02 -3.475476837687E-01  2.403255424791E-01
C46 -2.282553362786E-02  3.475476837687E-01 -2.403255424791E-01
C47 -2.363084686359E-01 -3.839143455019E-01  3.222138527506E-02
C48  2.363084686359E-01  3.839143455019E-01 -3.222138527506E-02
C49 -9.200840958279E-02 -4.712443626877E-01 -1.886288581548E-02
C50  9.200840958279E-02  4.712443626877E-01  1.886288581548E-02
C51  1.291872749623E-01 -4.826472502926E-01  1.041552459376E-01
C52 -1.291872749623E-01  4.826472502926E-01 -1.041552459376E-01
H53 -1.038545438094E-01  1.603109830821E-01  3.202641695020E-01
H54  1.038545438094E-01 -1.603109830821E-01 -3.202641695020E-01
H55 -2.253192000719E-02  3.579405308466E-01  4.452704069322E-01
H56  2.253192000719E-02 -3.579405308466E-01 -4.452704069322E-01
H57  3.256383707560E-01 -4.783563463527E-01  4.702707916313E-01
H58 -3.256383707560E-01  4.783563463527E-01 -4.702707916313E-01
H59 -4.178521379723E-01  4.981907321711E-01  3.671030707325E-01
H60  4.178521379723E-01 -4.981907321711E-01 -3.671030707325E-01
H61  1.227357439846E-03  2.781117138014E-02  1.830782813300E-01
H62 -1.227357439846E-03 -2.781117138014E-02 -1.830782813300E-01
H63 -3.128151322684E-01  3.649295437500E-01  2.294718849493E-01
H64  3.128151322684E-01 -3.649295437500E-01 -2.294718849493E-01
H65  1.054651453647E-01 -1.040685408336E-01  4.576098838813E-02
H66 -1.054651453647E-01  1.040685408336E-01 -4.576098838813E-02
H67 -2.096077224248E-01  2.355697909056E-01  9.150533176735E-02
H68  2.096077224248E-01 -2.355697909056E-01 -9.150533176735E-02
H69  4.191974652599E-01 -7.641140566965E-02  2.796826272691E-01
H70 -4.191974652599E-01  7.641140566965E-02 -2.796826272691E-01
H71  4.904771776101E-01 -3.724337282893E-03  4.242326658949E-01
H72 -4.904771776101E-01  3.724337282893E-03 -4.242326658949E-01
H73 -1.952232324430E-01 -9.084735820154E-02  4.858118847466E-01
H74  1.952232324430E-01  9.084735820154E-02 -4.858118847466E-01
H75  4.845279949087E-02 -2.460341644963E-01  4.030919185374E-01
H76 -4.845279949087E-02  2.460341644963E-01 -4.030919185374E-01
H77 -4.735334815233E-01 -2.114667989338E-01  1.425397982315E-01
H78  4.735334815233E-01  2.114667989338E-01 -1.425397982315E-01
H79  1.541922718984E-01 -3.833713330887E-01  2.665891676960E-01
H80 -1.541922718984E-01  3.833713330887E-01 -2.665891676960E-01
H81 -3.672099199807E-01 -3.467060983480E-01  6.219510124281E-03
H82  3.672099199807E-01  3.467060983480E-01 -6.219510124281E-03
H83  2.615373556052E-01  4.826483370030E-01  1.301491754554E-01
H84 -2.615373556052E-01 -4.826483370030E-01 -1.301491754554E-01


#===END

data_OPT_STEP_5

_symmetry_space_group_name_H-M 'P 1'
_cell_length_a      6.33836195
_cell_length_b      7.42825320
_cell_length_c     16.32394036
_cell_angle_alpha   97.659443
_cell_angle_beta   90.886071
_cell_angle_gamma   96.681509

loop_
_atom_site_label
_atom_site_fract_x
_atom_site_fract_y
_atom_site_fract_z
C1  2.832457638366E-02  2.397451392885E-01  3.263922181502E-01
C2 -2.832457638366E-02 -2.397451392885E-01 -3.263922181502E-01
C3  7.928277609797E-02  3.484046451050E-01  3.994270183148E-01
C4 -7.928277609797E-02 -3.484046451050E-01 -3.994270183148E-01
C5  2.858185821228E-01  4.495849021434E-01  4.139477378945E-01
C6 -2.858185821228E-01 -4.495849021434E-01 -4.139477378945E-01
C7  4.360638844059E-01  4.355578188281E-01  3.556716841183E-01
C8 -4.360638844059E-01 -4.355578188281E-01 -3.556716841183E-01
C9  3.886937538784E-01  3.257392416612E-01  2.771088004765E-01
C10 -3.886937538784E-01 -3.257392416612E-01 -2.771088004765E-01
C11  1.808788095274E-01  2.214098440739E-01  2.629685107955E-01
C12 -1.808788095274E-01 -2.214098440739E-01 -2.629685107955E-01
C13  1.342817973055E-01  1.078298028656E-01  1.891699045432E-01
C14 -1.342817973055E-01 -1.078298028656E-01 -1.891699045432E-01
C15  2.866171791632E-01  8.756429627691E-02  1.274045169023E-01
C16 -2.866171791632E-01 -8.756429627691E-02 -1.274045169023E-01
C17  4.963640549950E-01  1.900348274775E-01  1.419665388674E-01
C18 -4.963640549950E-01 -1.900348274775E-01 -1.419665388674E-01
C19 -4.582434890508E-01  3.030354762608E-01  2.181632192127E-01
C20  4.582434890508E-01 -3.030354762608E-01 -2.181632192127E-01
C21  2.415328145753E-01 -2.818223937780E-02  5.305967899193E-02
C22 -2.415328145753E-01  2.818223937780E-02 -5.305967899193E-02
C23  3.956196107937E-01 -5.226731599361E-02 -7.036992147843E-03
C24 -3.956196107937E-01  5.226731599361E-02  7.036992147843E-03
C25 -3.496520261201E-01  1.657784569376E-01  8.245257660512E-02
C26  3.496520261201E-01 -1.657784569376E-01 -8.245257660512E-02
C27 -4.506084417347E-01 -1.135962848199E-01  3.049924389846E-01
C28  4.506084417347E-01  1.135962848199E-01 -3.049924389846E-01
C29 -4.089373320545E-01 -7.116391571976E-02  3.876293364945E-01
C30  4.089373320545E-01  7.116391571976E-02 -3.876293364945E-01
C31 -2.198906508531E-01 -1.184926408847E-01  4.242049613471E-01
C32  2.198906508531E-01  1.184926408847E-01 -4.242049613471E-01
C33 -7.928416948431E-02 -2.071938690950E-01  3.770419555151E-01
C34  7.928416948431E-02  2.071938690950E-01 -3.770419555151E-01
C35 -1.171286364725E-01 -2.571153046342E-01  2.899273389657E-01
C36  1.171286364725E-01  2.571153046342E-01 -2.899273389657E-01
C37 -3.069013300581E-01 -2.066993310301E-01  2.526667743575E-01
C38  3.069013300581E-01  2.066993310301E-01 -2.526667743575E-01
C39 -3.460244543886E-01 -2.520338337848E-01  1.683169827183E-01
C40  3.460244543886E-01  2.520338337848E-01 -1.683169827183E-01
C41 -2.019946017491E-01 -3.421545968013E-01  1.170891136183E-01
C42  2.019946017491E-01  3.421545968013E-01 -1.170891136183E-01
C43 -1.044968185019E-02 -3.901673447033E-01  1.543908098552E-01
C44  1.044968185019E-02  3.901673447033E-01 -1.543908098552E-01
C45  2.660101716311E-02 -3.437136626055E-01  2.405364368794E-01
C46 -2.660101716311E-02  3.437136626055E-01 -2.405364368794E-01
C47 -2.398254409199E-01 -3.872651480637E-01  3.205615920458E-02
C48  2.398254409199E-01  3.872651480637E-01 -3.205615920458E-02
C49 -9.515062267954E-02 -4.749346413259E-01 -1.881392783199E-02
C50  9.515062267954E-02  4.749346413259E-01  1.881392783199E-02
C51  1.333408066129E-01 -4.782739481861E-01  1.042879366049E-01
C52 -1.333408066129E-01  4.782739481861E-01 -1.042879366049E-01
H53 -1.126183352022E-01  1.560102028593E-01  3.191315839497E-01
H54  1.126183352022E-01 -1.560102028593E-01 -3.191315839497E-01
H55 -3.075851288100E-02  3.584991485938E-01  4.442738257483E-01
H56  3.075851288100E-02 -3.584991485938E-01 -4.442738257483E-01
H57  3.249528178340E-01 -4.759843191230E-01  4.707163681296E-01
H58 -3.249528178340E-01  4.759843191230E-01 -4.707163681296E-01
H59 -4.140966925312E-01 -4.973843618821E-01  3.675805988047E-01
H60  4.140966925312E-01  4.973843618821E-01 -3.675805988047E-01
H61 -7.890647712291E-03  2.627347301313E-02  1.814627236171E-01
H62  7.890647712291E-03 -2.627347301313E-02 -1.814627236171E-01
H63 -3.037551140858E-01  3.622007131833E-01  2.318594720537E-01
H64  3.037551140858E-01 -3.622007131833E-01 -2.318594720537E-01
H65  9.669419895674E-02 -1.047348458272E-01  4.406689648352E-02
H66 -9.669419895674E-02  1.047348458272E-01 -4.406689648352E-02
H67 -2.015596829066E-01  2.361352726926E-01  9.320197348791E-02
H68  2.015596829066E-01 -2.361352726926E-01 -9.320197348791E-02
H69  4.159536451576E-01 -7.702961367816E-02  2.790109367472E-01
H70 -4.159536451576E-01  7.702961367816E-02 -2.790109367472E-01
H71  4.906941211448E-01 -8.725833319840E-04  4.242100046713E-01
H72 -4.906941211448E-01  8.725833319841E-04 -4.242100046713E-01
H73 -1.886532784179E-01 -8.272274568628E-02  4.861808163202E-01
H74  1.886532784179E-01  8.272274568628E-02 -4.861808163202E-01
H75  5.589055998079E-02 -2.396135504608E-01  4.034706273142E-01
H76 -5.589055998079E-02  2.396135504608E-01 -4.034706273142E-01
H77 -4.775760994139E-01 -2.131792871868E-01  1.419434115186E-01
H78  4.775760994139E-01  2.131792871868E-01 -1.419434115186E-01
H79  1.606707463002E-01 -3.780665768791E-01  2.670801875358E-01
H80 -1.606707463002E-01  3.780665768791E-01 -2.670801875358E-01
H81 -3.732198623822E-01 -3.513208365614E-01  5.718336133300E-03
H82  3.732198623822E-01  3.513208365614E-01 -5.718336133300E-03
H83  2.690047966982E-01  4.894374649743E-01  1.305310881435E-01
H84 -2.690047966982E-01 -4.894374649743E-01 -1.305310881435E-01


#===END

data_OPT_STEP_6

_symmetry_space_group_name_H-M 'P 1'
_cell_length_a      6.58631206
_cell_length_b      7.39569109
_cell_length_c     16.22982545
_cell_angle_alpha   97.498146
_cell_angle_beta   90.807980
_cell_angle_gamma   93.186637

loop_
_atom_site_label
_atom_site_fract_x
_atom_site_fract_y
_atom_site_fract_z
C1  3.706934878124E-02  2.563395906687E-01  3.260397195493E-01
C2 -3.706934878124E-02 -2.563395906687E-01 -3.260397195493E-01
C3  8.085958011687E-02  3.631647294521E-01  3.992230669643E-01
C4 -8.085958011687E-02 -3.631647294521E-01 -3.992230669643E-01
C5  2.819780667299E-01  4.443977575748E-01  4.170837763096E-01
C6 -2.819780667299E-01 -4.443977575748E-01 -4.170837763096E-01
C7  4.325305183585E-01  4.180453594385E-01  3.605718005714E-01
C8 -4.325305183585E-01 -4.180453594385E-01 -3.605718005714E-01
C9  3.905543236896E-01  3.126697029278E-01  2.811873786083E-01
C10 -3.905543236896E-01 -3.126697029278E-01 -2.811873786083E-01
C11  1.805197510451E-01  2.416545000309E-01  2.606732233833E-01
C12 -1.805197510451E-01 -2.416545000309E-01 -2.606732233833E-01
C13  1.411304175618E-01  1.271886573515E-01  1.873364657895E-01
C14 -1.411304175618E-01 -1.271886573515E-01 -1.873364657895E-01
C15  2.880532061769E-01  1.030875575354E-01  1.252385559848E-01
C16 -2.880532061769E-01 -1.030875575354E-01 -1.252385559848E-01
C17  4.941266535197E-01  1.818468955395E-01  1.439414291462E-01
C18 -4.941266535197E-01 -1.818468955395E-01 -1.439414291462E-01
C19 -4.645640351629E-01  2.913138466849E-01  2.208983635122E-01
C20  4.645640351629E-01 -2.913138466849E-01 -2.208983635122E-01
C21  2.482719049104E-01 -1.133908266329E-02  5.105409298905E-02
C22 -2.482719049104E-01  1.133908266329E-02 -5.105409298905E-02
C23  3.941700312205E-01 -3.496190621242E-02 -1.050220361440E-02
C24 -3.941700312205E-01  3.496190621242E-02  1.050220361440E-02
C25 -3.570415118994E-01  1.529273216967E-01  8.450084571763E-02
C26  3.570415118994E-01 -1.529273216967E-01 -8.450084571763E-02
C27 -4.565636262164E-01 -1.172858575103E-01  3.063742164369E-01
C28  4.565636262164E-01  1.172858575103E-01 -3.063742164369E-01
C29 -4.120720293707E-01 -6.795956120239E-02  3.886824968779E-01
C30  4.120720293707E-01  6.795956120239E-02 -3.886824968779E-01
C31 -2.338023165510E-01 -1.248524669931E-01  4.256463463614E-01
C32  2.338023165510E-01  1.248524669931E-01 -4.256463463614E-01
C33 -9.427761088912E-02 -2.156468510355E-01  3.781914747719E-01
C34  9.427761088912E-02  2.156468510355E-01 -3.781914747719E-01
C35 -1.237196608390E-01 -2.567769249225E-01  2.903411099342E-01
C36  1.237196608390E-01  2.567769249225E-01 -2.903411099342E-01
C37 -3.174180894244E-01 -2.174207401395E-01  2.542424694819E-01
C38  3.174180894244E-01  2.174207401395E-01 -2.542424694819E-01
C39 -3.496491339227E-01 -2.561158030048E-01  1.694326548910E-01
C40  3.496491339227E-01  2.561158030048E-01 -1.694326548910E-01
C41 -2.083083375865E-01 -3.499962622964E-01  1.180939779086E-01
C42  2.083083375865E-01  3.499962622964E-01 -1.180939779086E-01
C43 -1.668312888951E-02 -3.924912476307E-01  1.545857898202E-01
C44  1.668312888951E-02  3.924912476307E-01 -1.545857898202E-01
C45  1.791216342087E-02 -3.461261580229E-01  2.407930992343E-01
C46 -1.791216342087E-02  3.461261580229E-01 -2.407930992343E-01
C47 -2.420535385568E-01 -3.929538718738E-01  3.280931046048E-02
C48  2.420535385568E-01  3.929538718738E-01 -3.280931046048E-02
C49 -1.002605453756E-01 -4.849365421959E-01 -1.788742064982E-02
C50  1.002605453756E-01  4.849365421959E-01  1.788742064982E-02
C51  1.319207879582E-01 -4.735493580421E-01  1.037761772490E-01
C52 -1.319207879582E-01  4.735493580421E-01 -1.037761772490E-01
H53 -1.098916264879E-01  1.882462175044E-01  3.140858789542E-01
H54  1.098916264879E-01 -1.882462175044E-01 -3.140858789542E-01
H55 -3.043157820021E-02  3.739302145423E-01  4.466647304987E-01
H56  3.043157820021E-02 -3.739302145423E-01 -4.466647304987E-01
H57  3.193702401651E-01 -4.853400880434E-01  4.780580832217E-01
H58 -3.193702401651E-01  4.853400880434E-01 -4.780580832217E-01
H59 -3.994589507011E-01  4.481308992261E-01  3.807411121881E-01
H60  3.994589507011E-01 -4.481308992261E-01 -3.807411121881E-01
H61 -3.925970913604E-03  5.440815067158E-02  1.771560798533E-01
H62  3.925970913604E-03 -5.440815067158E-02 -1.771560798533E-01
H63 -3.012120935431E-01  3.271477356971E-01  2.400387011761E-01
H64  3.012120935431E-01 -3.271477356971E-01 -2.400387011761E-01
H65  9.359739796309E-02 -6.715284992169E-02  3.675155606655E-02
H66 -9.359739796309E-02  6.715284992169E-02 -3.675155606655E-02
H67 -1.930813410670E-01  1.912605062211E-01  1.034070172894E-01
H68  1.930813410670E-01 -1.912605062211E-01 -1.034070172894E-01
H69  3.981267011921E-01 -9.112461648411E-02  2.796430936787E-01
H70 -3.981267011921E-01  9.112461648411E-02 -2.796430936787E-01
H71  4.875552934970E-01  1.051153379480E-02  4.275357277636E-01
H72 -4.875552934970E-01 -1.051153379480E-02 -4.275357277636E-01
H73 -1.936335930108E-01 -7.275601567291E-02  4.896392370599E-01
H74  1.936335930108E-01  7.275601567291E-02 -4.896392370599E-01
H75  4.954511968638E-02 -2.436267950783E-01  4.049120945029E-01
H76 -4.954511968638E-02  2.436267950783E-01 -4.049120945029E-01
H77 -4.925008502869E-01 -2.263098196449E-01  1.425918326070E-01
H78  4.925008502869E-01  2.263098196449E-01 -1.425918326070E-01
H79  1.723652635901E-01 -3.587553237635E-01  2.666411897643E-01
H80 -1.723652635901E-01  3.587553237635E-01 -2.666411897643E-01
H81 -3.915917665348E-01 -3.732903358192E-01  6.416947704827E-03
H82  3.915917665348E-01  3.732903358192E-01 -6.416947704827E-03
H83  2.891921923709E-01 -4.818248340848E-01  1.293890558607E-01
H84 -2.891921923709E-01  4.818248340848E-01 -1.293890558607E-01


#===END

data_OPT_STEP_7

_symmetry_space_group_name_H-M 'P 1'
_cell_length_a      6.54123485
_cell_length_b      7.36319691
_cell_length_c     16.21557832
_cell_angle_alpha   97.301926
_cell_angle_beta   90.893961
_cell_angle_gamma   93.035178

loop_
_atom_site_label
_atom_site_fract_x
_atom_site_fract_y
_atom_site_fract_z
C1  3.639579245763E-02  2.505551789178E-01  3.269265872983E-01
C2 -3.639579245763E-02 -2.505551789178E-01 -3.269265872983E-01
C3  7.922429260479E-02  3.590851864082E-01  3.997052395560E-01
C4 -7.922429260479E-02 -3.590851864082E-01 -3.997052395560E-01
C5  2.802651599177E-01  4.424870236859E-01  4.171685652170E-01
C6 -2.802651599177E-01 -4.424870236859E-01 -4.171685652170E-01
C7  4.292699978372E-01  4.210411803456E-01  3.596180408885E-01
C8 -4.292699978372E-01 -4.210411803456E-01 -3.596180408885E-01
C9  3.890567342181E-01  3.126278021305E-01  2.809681389621E-01
C10 -3.890567342181E-01 -3.126278021305E-01 -2.809681389621E-01
C11  1.816785409323E-01  2.349242167366E-01  2.619780170251E-01
C12 -1.816785409323E-01 -2.349242167366E-01 -2.619780170251E-01
C13  1.428527518996E-01  1.191591842041E-01  1.889659892246E-01
C14 -1.428527518996E-01 -1.191591842041E-01 -1.889659892246E-01
C15  2.898553207141E-01  9.707845444212E-02  1.265216799250E-01
C16 -2.898553207141E-01 -9.707845444212E-02 -1.265216799250E-01
C17  4.929922459340E-01  1.830389276439E-01  1.435624638522E-01
C18 -4.929922459340E-01 -1.830389276439E-01 -1.435624638522E-01
C19 -4.676935391431E-01  2.961049936306E-01  2.196329973373E-01
C20  4.676935391431E-01 -2.961049936306E-01 -2.196329973373E-01
C21  2.507742928854E-01 -1.887449782009E-02  5.273930493241E-02
C22 -2.507742928854E-01  1.887449782009E-02 -5.273930493241E-02
C23  3.960256379823E-01 -3.916094360759E-02 -9.505511637417E-03
C24 -3.960256379823E-01  3.916094360759E-02  9.505511637417E-03
C25 -3.600127088781E-01  1.594452593100E-01  8.292368896779E-02
C26  3.600127088781E-01 -1.594452593100E-01 -8.292368896779E-02
C27 -4.571864947294E-01 -1.142554352575E-01  3.062034931547E-01
C28  4.571864947294E-01  1.142554352575E-01 -3.062034931547E-01
C29 -4.126590663842E-01 -6.594816605781E-02  3.885695473159E-01
C30  4.126590663842E-01  6.594816605781E-02 -3.885695473159E-01
C31 -2.318947997011E-01 -1.218500070905E-01  4.254178428242E-01
C32  2.318947997011E-01  1.218500070905E-01 -4.254178428242E-01
C33 -9.142580932641E-02 -2.128095683749E-01  3.779329451006E-01
C34  9.142580932641E-02  2.128095683749E-01 -3.779329451006E-01
C35 -1.228417243014E-01 -2.556878257298E-01  2.902309879392E-01
C36  1.228417243014E-01  2.556878257298E-01 -2.902309879392E-01
C37 -3.169531390319E-01 -2.144037428362E-01  2.540541551640E-01
C38  3.169531390319E-01  2.144037428362E-01 -2.540541551640E-01
C39 -3.497785588319E-01 -2.529305589143E-01  1.692337717255E-01
C40  3.497785588319E-01  2.529305589143E-01 -1.692337717255E-01
C41 -2.074583068469E-01 -3.469191429862E-01  1.178925129260E-01
C42  2.074583068469E-01  3.469191429862E-01 -1.178925129260E-01
C43 -1.596971465661E-02 -3.921349986225E-01  1.545276697224E-01
C44  1.596971465661E-02  3.921349986225E-01 -1.545276697224E-01
C45  1.827997967155E-02 -3.472614378878E-01  2.408060666239E-01
C46 -1.827997967155E-02  3.472614378878E-01 -2.408060666239E-01
C47 -2.410640549000E-01 -3.887894382202E-01  3.253539099910E-02
C48  2.410640549000E-01  3.887894382202E-01 -3.253539099910E-02
C49 -9.927360056573E-02 -4.823621937760E-01 -1.803084282907E-02
C50  9.927360056573E-02  4.823621937760E-01  1.803084282907E-02
C51  1.305700493985E-01 -4.775515601287E-01  1.040032187737E-01
C52 -1.305700493985E-01  4.775515601287E-01 -1.040032187737E-01
H53 -1.131703320408E-01  1.840273890266E-01  3.142556098765E-01
H54  1.131703320408E-01 -1.840273890266E-01 -3.142556098765E-01
H55 -3.379900182762E-02  3.702248910300E-01  4.471910499541E-01
H56  3.379900182762E-02 -3.702248910300E-01 -4.471910499541E-01
H57  3.175179212311E-01 -4.869300135356E-01  4.784423299070E-01
H58 -3.175179212311E-01  4.869300135356E-01 -4.784423299070E-01
H59 -4.059417480926E-01  4.596898458245E-01  3.778713348928E-01
H60  4.059417480926E-01 -4.596898458245E-01 -3.778713348928E-01
H61 -4.257052885731E-03  4.676459459206E-02  1.784347762942E-01
H62  4.257052885731E-03 -4.676459459206E-02 -1.784347762942E-01
H63 -3.082430234789E-01  3.407345493418E-01  2.367218997429E-01
H64  3.082430234789E-01 -3.407345493418E-01 -2.367218997429E-01
H65  9.512514941524E-02 -7.626193638183E-02  3.858693243414E-02
H66 -9.512514941524E-02  7.626193638183E-02 -3.858693243414E-02
H67 -1.978700479006E-01  2.040253307318E-01  1.004734286150E-01
H68  1.978700479006E-01 -2.040253307318E-01 -1.004734286150E-01
H69  3.957839573842E-01 -8.774707651734E-02  2.792728491342E-01
H70 -3.957839573842E-01  8.774707651734E-02 -2.792728491342E-01
H71  4.850524646579E-01  1.177234836267E-02  4.278031157882E-01
H72 -4.850524646579E-01 -1.177234836267E-02 -4.278031157882E-01
H73 -1.916894246163E-01 -7.034115165306E-02  4.897760132994E-01
H74  1.916894246163E-01  7.034115165306E-02 -4.897760132994E-01
H75  5.448968371695E-02 -2.406751768297E-01  4.047419256593E-01
H76 -5.448968371695E-02  2.406751768297E-01 -4.047419256593E-01
H77 -4.952886680966E-01 -2.240598143990E-01  1.423027052863E-01
H78  4.952886680966E-01  2.240598143990E-01 -1.423027052863E-01
H79  1.724178287419E-01 -3.631814093611E-01  2.669508013732E-01
H80 -1.724178287419E-01  3.631814093611E-01 -2.669508013732E-01
H81 -3.915885847817E-01 -3.677377463846E-01  5.898422947038E-03
H82  3.915885847817E-01  3.677377463846E-01 -5.898422947038E-03
H83  2.860115138114E-01 -4.911260657264E-01  1.300881068853E-01
H84 -2.860115138114E-01  4.911260657264E-01 -1.300881068853E-01


#===END

data_OPT_STEP_8

_symmetry_space_group_name_H-M 'P 1'
_cell_length_a      6.45220388
_cell_length_b      7.20420752
_cell_length_c     16.12475578
_cell_angle_alpha   96.199270
_cell_angle_beta   90.712961
_cell_angle_gamma   94.278007

loop_
_atom_site_label
_atom_site_fract_x
_atom_site_fract_y
_atom_site_fract_z
C1  2.612308477440E-02  2.540936974981E-01  3.249815848079E-01
C2 -2.612308477440E-02 -2.540936974981E-01 -3.249815848079E-01
C3  7.309142036426E-02  3.589101944550E-01  3.987487087256E-01
C4 -7.309142036426E-02 -3.589101944550E-01 -3.987487087256E-01
C5  2.797851232980E-01  4.427236723487E-01  4.165973414684E-01
C6 -2.797851232980E-01 -4.427236723487E-01 -4.165973414684E-01
C7  4.316960284866E-01  4.224086587429E-01  3.591798460138E-01
C8 -4.316960284866E-01 -4.224086587429E-01 -3.591798460138E-01
C9  3.900224248867E-01  3.131443593259E-01  2.806376441375E-01
C10 -3.900224248867E-01 -3.131443593259E-01 -2.806376441375E-01
C11  1.768536692133E-01  2.350911439165E-01  2.612478212016E-01
C12 -1.768536692133E-01 -2.350911439165E-01 -2.612478212016E-01
C13  1.330474496295E-01  1.244356650950E-01  1.869051181523E-01
C14 -1.330474496295E-01 -1.244356650950E-01 -1.869051181523E-01
C15  2.852280048843E-01  9.886363257116E-02  1.256553589556E-01
C16 -2.852280048843E-01 -9.886363257116E-02 -1.256553589556E-01
C17  4.966807925702E-01  1.808316993478E-01  1.441538871124E-01
C18 -4.966807925702E-01 -1.808316993478E-01 -1.441538871124E-01
C19 -4.615289850213E-01  2.935250055300E-01  2.204240806090E-01
C20  4.615289850213E-01 -2.935250055300E-01 -2.204240806090E-01
C21  2.413901385642E-01 -1.290535121516E-02  5.072363147027E-02
C22 -2.413901385642E-01  1.290535121516E-02 -5.072363147027E-02
C23  3.922928245284E-01 -3.790940080232E-02 -1.003831438139E-02
C24 -3.922928245284E-01  3.790940080232E-02  1.003831438139E-02
C25 -3.516487106061E-01  1.543838084755E-01  8.452271262157E-02
C26  3.516487106061E-01 -1.543838084755E-01 -8.452271262157E-02
C27 -4.597992500072E-01 -1.152903964751E-01  3.057827943750E-01
C28  4.597992500072E-01  1.152903964751E-01 -3.057827943750E-01
C29 -4.141303434914E-01 -6.629289385734E-02  3.882504013876E-01
C30  4.141303434914E-01  6.629289385734E-02 -3.882504013876E-01
C31 -2.279846258919E-01 -1.171238632373E-01  4.251554140096E-01
C32  2.279846258919E-01  1.171238632373E-01 -4.251554140096E-01
C33 -8.549785800268E-02 -2.065753277070E-01  3.777768649516E-01
C34  8.549785800268E-02  2.065753277070E-01 -3.777768649516E-01
C35 -1.206596181404E-01 -2.537134748984E-01  2.902267458271E-01
C36  1.206596181404E-01  2.537134748984E-01 -2.902267458271E-01
C37 -3.172439870256E-01 -2.134853431261E-01  2.537307837601E-01
C38  3.172439870256E-01  2.134853431261E-01 -2.537307837601E-01
C39 -3.531336084063E-01 -2.552875834529E-01  1.689703970435E-01
C40  3.531336084063E-01  2.552875834529E-01 -1.689703970435E-01
C41 -2.081876427749E-01 -3.466970823161E-01  1.176542211523E-01
C42  2.081876427749E-01  3.466970823161E-01 -1.176542211523E-01
C43 -1.329748661151E-02 -3.895445553406E-01  1.545133535366E-01
C44  1.329748661151E-02  3.895445553406E-01 -1.545133535366E-01
C45  2.197788974140E-02 -3.443649548447E-01  2.409210132934E-01
C46 -2.197788974140E-02  3.443649548447E-01 -2.409210132934E-01
C47 -2.437932537340E-01 -3.903166833990E-01  3.224759675652E-02
C48  2.437932537340E-01  3.903166833990E-01 -3.224759675652E-02
C49 -9.966799101374E-02 -4.817467724602E-01 -1.825591600641E-02
C50  9.966799101374E-02  4.817467724602E-01  1.825591600641E-02
C51  1.330246760349E-01 -4.763828662699E-01  1.042700659638E-01
C52 -1.330246760349E-01  4.763828662699E-01 -1.042700659638E-01
H53 -1.300975955792E-01  1.919073233196E-01  3.108110487866E-01
H54  1.300975955792E-01 -1.919073233196E-01 -3.108110487866E-01
H55 -4.167834402969E-02  3.683979981915E-01  4.465474212674E-01
H56  4.167834402969E-02 -3.683979981915E-01 -4.465474212674E-01
H57  3.179784857181E-01 -4.857816287568E-01  4.779201592274E-01
H58 -3.179784857181E-01  4.857816287568E-01 -4.779201592274E-01
H59 -4.031471236472E-01  4.677554373348E-01  3.761881305470E-01
H60  4.031471236472E-01 -4.677554373348E-01 -3.761881305470E-01
H61 -2.224144053155E-02  5.925081857312E-02  1.742290509024E-01
H62  2.224144053155E-02 -5.925081857312E-02 -1.742290509024E-01
H63 -2.993411196776E-01  3.403506456230E-01  2.372816111165E-01
H64  2.993411196776E-01 -3.403506456230E-01 -2.372816111165E-01
H65  7.868639057346E-02 -6.523067217732E-02  3.494778850327E-02
H66 -7.868639057346E-02  6.523067217732E-02 -3.494778850327E-02
H67 -1.853793671454E-01  1.990167576596E-01  1.023850594878E-01
H68  1.853793671454E-01 -1.990167576596E-01 -1.023850594878E-01
H69  3.912684081096E-01 -8.930422541792E-02  2.785103714876E-01
H70 -3.912684081096E-01  8.930422541792E-02 -2.785103714876E-01
H71  4.814397937456E-01  1.008813323581E-02  4.275174992530E-01
H72 -4.814397937456E-01 -1.008813323581E-02 -4.275174992530E-01
H73 -1.882450273989E-01 -6.699167085846E-02  4.898755716754E-01
H74  1.882450273989E-01  6.699167085846E-02 -4.898755716754E-01
H75  6.323484319634E-02 -2.327437202936E-01  4.047614474731E-01
H76 -6.323484319634E-02  2.327437202936E-01 -4.047614474731E-01
H77  4.977454847298E-01 -2.293383593917E-01  1.418991658436E-01
H78 -4.977454847298E-01  2.293383593917E-01 -1.418991658436E-01
H79  1.757559792249E-01 -3.630277022172E-01  2.675297431807E-01
H80 -1.757559792249E-01  3.630277022172E-01 -2.675297431807E-01
H81 -3.961082358796E-01 -3.696152310844E-01  5.310449638151E-03
H82  3.961082358796E-01  3.696152310844E-01 -5.310449638151E-03
H83  2.872790227453E-01 -4.937621656990E-01  1.309137012455E-01
H84 -2.872790227453E-01  4.937621656990E-01 -1.309137012455E-01


#===END

data_OPT_STEP_9

_symmetry_space_group_name_H-M 'P 1'
_cell_length_a      6.46529143
_cell_length_b      7.16726972
_cell_length_c     16.15208742
_cell_angle_alpha   96.144117
_cell_angle_beta   89.739449
_cell_angle_gamma   96.554810

loop_
_atom_site_label
_atom_site_fract_x
_atom_site_fract_y
_atom_site_fract_z
C1  2.857559044756E-02  2.487279646752E-01  3.262403655943E-01
C2 -2.857559044756E-02 -2.487279646752E-01 -3.262403655943E-01
C3  7.951897028465E-02  3.509185367693E-01  4.005328860155E-01
C4 -7.951897028465E-02 -3.509185367693E-01 -4.005328860155E-01
C5  2.885156258669E-01  4.367561000744E-01  4.175090494841E-01
C6 -2.885156258669E-01 -4.367561000744E-01 -4.175090494841E-01
C7  4.436750078047E-01  4.132914464257E-01  3.610214519276E-01
C8 -4.436750078047E-01 -4.132914464257E-01 -3.610214519276E-01
C9  3.946384290776E-01  3.131038674785E-01  2.804740279564E-01
C10 -3.946384290776E-01 -3.131038674785E-01 -2.804740279564E-01
C11  1.816332856543E-01  2.279060088394E-01  2.629616648979E-01
C12 -1.816332856543E-01 -2.279060088394E-01 -2.629616648979E-01
C13  1.346553868249E-01  1.187496609747E-01  1.883366549340E-01
C14 -1.346553868249E-01 -1.187496609747E-01 -1.883366549340E-01
C15  2.882491942008E-01  9.264535380528E-02  1.272611375744E-01
C16 -2.882491942008E-01 -9.264535380528E-02 -1.272611375744E-01
C17  4.996299051022E-01  1.820362931983E-01  1.438131121635E-01
C18 -4.996299051022E-01 -1.820362931983E-01 -1.438131121635E-01
C19 -4.517839623790E-01  2.874321061223E-01  2.218296224036E-01
C20  4.517839623790E-01 -2.874321061223E-01 -2.218296224036E-01
C21  2.453763641259E-01 -2.549411927252E-02  5.395521903800E-02
C22 -2.453763641259E-01  2.549411927252E-02 -5.395521903800E-02
C23  3.953516480115E-01 -4.673598106679E-02 -7.751498529874E-03
C24 -3.953516480115E-01  4.673598106679E-02  7.751498529874E-03
C25 -3.500961596205E-01  1.601919965997E-01  8.294623782944E-02
C26  3.500961596205E-01 -1.601919965997E-01 -8.294623782944E-02
C27 -4.561887040254E-01 -1.177912012363E-01  3.061225553308E-01
C28  4.561887040254E-01  1.177912012363E-01 -3.061225553308E-01
C29 -4.148833041070E-01 -7.131266593232E-02  3.885334686877E-01
C30  4.148833041070E-01  7.131266593232E-02 -3.885334686877E-01
C31 -2.276578400699E-01 -1.147568138363E-01  4.247109016913E-01
C32  2.276578400699E-01  1.147568138363E-01 -4.247109016913E-01
C33 -8.444480752075E-02 -2.001737924555E-01  3.769560963039E-01
C34  8.444480752075E-02  2.001737924555E-01 -3.769560963039E-01
C35 -1.210909037337E-01 -2.522475585551E-01  2.899454184003E-01
C36  1.210909037337E-01  2.522475585551E-01 -2.899454184003E-01
C37 -3.134159254210E-01 -2.126109610535E-01  2.538098639977E-01
C38  3.134159254210E-01  2.126109610535E-01 -2.538098639977E-01
C39 -3.520226966401E-01 -2.610696516721E-01  1.696518035886E-01
C40  3.520226966401E-01  2.610696516721E-01 -1.696518035886E-01
C41 -2.081635550528E-01 -3.505897154036E-01  1.180717598834E-01
C42  2.081635550528E-01  3.505897154036E-01 -1.180717598834E-01
C43 -1.113728091179E-02 -3.839340156488E-01  1.539860889723E-01
C44  1.113728091179E-02  3.839340156488E-01 -1.539860889723E-01
C45  2.383476822198E-02 -3.364790124865E-01  2.400702280475E-01
C46 -2.383476822198E-02  3.364790124865E-01 -2.400702280475E-01
C47 -2.460297752538E-01 -4.001397368546E-01  3.322062307845E-02
C48  2.460297752538E-01  4.001397368546E-01 -3.322062307845E-02
C49 -9.954680536636E-02 -4.848607052832E-01 -1.787856960675E-02
C50  9.954680536636E-02  4.848607052832E-01  1.787856960675E-02
C51  1.382801037325E-01 -4.630485726689E-01  1.030615934992E-01
C52 -1.382801037325E-01  4.630485726689E-01 -1.030615934992E-01
H53 -1.287164664979E-01  1.821314104758E-01  3.130199655361E-01
H54  1.287164664979E-01 -1.821314104758E-01 -3.130199655361E-01
H55 -3.612674079909E-02  3.603309216565E-01  4.488484134379E-01
H56  3.612674079909E-02 -3.603309216565E-01 -4.488484134379E-01
H57  3.263436455256E-01 -4.871176138525E-01  4.779221041684E-01
H58 -3.263436455256E-01  4.871176138525E-01 -4.779221041684E-01
H59 -3.906417437472E-01  4.632573948902E-01  3.769928144021E-01
H60  3.906417437472E-01 -4.632573948902E-01 -3.769928144021E-01
H61 -2.341258774223E-02  5.210098038461E-02  1.758543313500E-01
H62  2.341258774223E-02 -5.210098038461E-02 -1.758543313500E-01
H63 -2.877982533169E-01  3.368563003585E-01  2.380884340872E-01
H64  2.877982533169E-01 -3.368563003585E-01 -2.380884340872E-01
H65  9.142972463157E-02 -1.000468636075E-01  4.367557431703E-02
H66 -9.142972463157E-02  1.000468636075E-01 -4.367557431703E-02
H67 -1.930200329817E-01  2.271671128020E-01  9.517298555295E-02
H68  1.930200329817E-01 -2.271671128020E-01 -9.517298555295E-02
H69  4.033389280544E-01 -8.251763064125E-02  2.781982616282E-01
H70 -4.033389280544E-01  8.251763064125E-02 -2.781982616282E-01
H71  4.796216469139E-01  4.185889110841E-03  4.277551421604E-01
H72 -4.796216469139E-01 -4.185889110841E-03 -4.277551421604E-01
H73 -1.977316382514E-01 -7.668887580168E-02  4.904051449131E-01
H74  1.977316382514E-01  7.668887580168E-02 -4.904051449131E-01
H75  6.368205057482E-02 -2.250449447884E-01  4.034909887113E-01
H76 -6.368205057482E-02  2.250449447884E-01 -4.034909887113E-01
H77 -4.960962644649E-01 -2.305004397198E-01  1.423137331019E-01
H78  4.960962644649E-01  2.305004397198E-01 -1.423137331019E-01
H79  1.687699177646E-01 -3.649420731996E-01  2.672124668237E-01
H80 -1.687699177646E-01  3.649420731996E-01 -2.672124668237E-01
H81 -3.916263589737E-01 -3.725697477698E-01  5.950389956554E-03
H82  3.916263589737E-01  3.725697477698E-01 -5.950389956554E-03
H83  2.882170853810E-01 -4.836017389771E-01  1.298166937878E-01
H84 -2.882170853810E-01  4.836017389771E-01 -1.298166937878E-01


#===END

data_OPT_STEP_10

_symmetry_space_group_name_H-M 'P 1'
_cell_length_a      6.33681899
_cell_length_b      7.10852629
_cell_length_c     16.17341315
_cell_angle_alpha   95.992674
_cell_angle_beta   90.013227
_cell_angle_gamma   96.517421

loop_
_atom_site_label
_atom_site_fract_x
_atom_site_fract_y
_atom_site_fract_z
C1  2.403456999434E-02  2.514140611862E-01  3.257437207340E-01
C2 -2.403456999434E-02 -2.514140611862E-01 -3.257437207340E-01
C3  7.682889635179E-02  3.550077288799E-01  3.996563570583E-01
C4 -7.682889635179E-02 -3.550077288799E-01 -3.996563570583E-01
C5  2.894594326374E-01  4.420909875936E-01  4.161240927942E-01
C6 -2.894594326374E-01 -4.420909875936E-01 -4.161240927942E-01
C7  4.468596813550E-01  4.178742787579E-01  3.597909724629E-01
C8 -4.468596813550E-01 -4.178742787579E-01 -3.597909724629E-01
C9  3.932485231043E-01  3.214776177399E-01  2.784061397255E-01
C10 -3.932485231043E-01 -3.214776177399E-01 -2.784061397255E-01
C11  1.779117874423E-01  2.322660194659E-01  2.619650563228E-01
C12 -1.779117874423E-01 -2.322660194659E-01 -2.619650563228E-01
C13  1.295848923428E-01  1.210762017485E-01  1.878428395629E-01
C14 -1.295848923428E-01 -1.210762017485E-01 -1.878428395629E-01
C15  2.843950424092E-01  9.607444563446E-02  1.264522456351E-01
C16 -2.843950424092E-01 -9.607444563446E-02 -1.264522456351E-01
C17  4.984277562445E-01  1.890904357261E-01  1.420522217431E-01
C18 -4.984277562445E-01 -1.890904357261E-01 -1.420522217431E-01
C19 -4.516987069142E-01  2.963517911895E-01  2.195812717851E-01
C20  4.516987069142E-01 -2.963517911895E-01 -2.195812717851E-01
C21  2.403303112055E-01 -2.418868407289E-02  5.366282504058E-02
C22 -2.403303112055E-01  2.418868407289E-02 -5.366282504058E-02
C23  3.937860947654E-01 -4.817732668295E-02 -7.371092537446E-03
C24 -3.937860947654E-01  4.817732668295E-02  7.371092537446E-03
C25 -3.469602001920E-01  1.630319645518E-01  8.221307346195E-02
C26  3.469602001920E-01 -1.630319645518E-01 -8.221307346195E-02
C27 -4.488468381020E-01 -1.052537672482E-01  3.064951088748E-01
C28  4.488468381020E-01  1.052537672482E-01 -3.064951088748E-01
C29 -4.094735671692E-01 -6.606691365965E-02  3.891763647019E-01
C30  4.094735671692E-01  6.606691365965E-02 -3.891763647019E-01
C31 -2.238902271186E-01 -1.196207863370E-01  4.253830619611E-01
C32  2.238902271186E-01  1.196207863370E-01 -4.253830619611E-01
C33 -8.107150482189E-02 -2.082734314356E-01  3.774256759332E-01
C34  8.107150482189E-02  2.082734314356E-01 -3.774256759332E-01
C35 -1.179656041902E-01 -2.559697085993E-01  2.903211761843E-01
C36  1.179656041902E-01  2.559697085993E-01 -2.903211761843E-01
C37 -3.061092013977E-01 -2.025691241291E-01  2.539538869789E-01
C38  3.061092013977E-01  2.025691241291E-01 -2.539538869789E-01
C39 -3.426082566538E-01 -2.431710866106E-01  1.694669467951E-01
C40  3.426082566538E-01  2.431710866106E-01 -1.694669467951E-01
C41 -2.021309749179E-01 -3.401340395524E-01  1.179656647228E-01
C42  2.021309749179E-01  3.401340395524E-01 -1.179656647228E-01
C43 -1.170225961926E-02 -3.909068133140E-01  1.543406893310E-01
C44  1.170225961926E-02  3.909068133140E-01 -1.543406893310E-01
C45  2.484406559573E-02 -3.459004830615E-01  2.403878699589E-01
C46 -2.484406559573E-02  3.459004830615E-01 -2.403878699589E-01
C47 -2.380360601289E-01 -3.820787064120E-01  3.282699116092E-02
C48  2.380360601289E-01  3.820787064120E-01 -3.282699116092E-02
C49 -9.561804305186E-02 -4.752824940395E-01 -1.814832624474E-02
C50  9.561804305186E-02  4.752824940395E-01  1.814832624474E-02
C51  1.339722832384E-01 -4.780251921588E-01  1.034796403331E-01
C52 -1.339722832384E-01  4.780251921588E-01 -1.034796403331E-01
H53 -1.342318125599E-01  1.806353610512E-01  3.135592802386E-01
H54  1.342318125599E-01 -1.806353610512E-01 -3.135592802386E-01
H55 -4.085294154169E-02  3.661807524508E-01  4.477974893447E-01
H56  4.085294154169E-02 -3.661807524508E-01 -4.477974893447E-01
H57  3.285012804139E-01 -4.809087789790E-01  4.763852657030E-01
H58 -3.285012804139E-01  4.809087789790E-01 -4.763852657030E-01
H59 -3.826578669244E-01  4.649428545678E-01  3.764048009900E-01
H60  3.826578669244E-01 -4.649428545678E-01 -3.764048009900E-01
H61 -2.983877064147E-02  5.083755588700E-02  1.762144020122E-01
H62  2.983877064147E-02 -5.083755588700E-02 -1.762144020122E-01
H63 -2.851785617685E-01  3.468978507524E-01  2.355508568542E-01
H64  2.851785617685E-01 -3.468978507524E-01 -2.355508568542E-01
H65  8.502105969655E-02 -1.021573536046E-01  4.421149875510E-02
H66 -8.502105969655E-02  1.021573536046E-01 -4.421149875510E-02
H67 -1.866494690703E-01  2.300321504616E-01  9.444336384868E-02
H68  1.866494690703E-01 -2.300321504616E-01 -9.444336384868E-02
H69  4.126269941329E-01 -6.185004005012E-02  2.783799551532E-01
H70 -4.126269941329E-01  6.185004005012E-02 -2.783799551532E-01
H71  4.847233913882E-01  1.158458866781E-02  4.284477182575E-01
H72 -4.847233913882E-01 -1.158458866781E-02 -4.284477182575E-01
H73 -1.953421788480E-01 -8.667220227238E-02  4.913736090543E-01
H74  1.953421788480E-01  8.667220227238E-02 -4.913736090543E-01
H75  6.844401008020E-02 -2.367595298602E-01  4.036644697335E-01
H76 -6.844401008020E-02  2.367595298602E-01 -4.036644697335E-01
H77 -4.820738174004E-01 -2.003771378375E-01  1.416843755833E-01
H78  4.820738174004E-01  2.003771378375E-01 -1.416843755833E-01
H79  1.682757503934E-01 -3.819942142456E-01  2.676408155018E-01
H80 -1.682757503934E-01  3.819942142456E-01 -2.676408155018E-01
H81 -3.781771176448E-01 -3.410699602425E-01  5.074514818041E-03
H82  3.781771176448E-01  3.410699602425E-01 -5.074514818041E-03
H83  2.811219525554E-01  4.919017375197E-01  1.304472433811E-01
H84 -2.811219525554E-01 -4.919017375197E-01 -1.304472433811E-01


#===END

data_OPT_STEP_11

_symmetry_space_group_name_H-M 'P 1'
_cell_length_a      6.32888107
_cell_length_b      7.11117634
_cell_length_c     16.17647267
_cell_angle_alpha   96.008595
_cell_angle_beta   90.036146
_cell_angle_gamma   96.609610

loop_
_atom_site_label
_atom_site_fract_x
_atom_site_fract_y
_atom_site_fract_z
C1  2.568432498216E-02  2.493666210592E-01  3.264931358050E-01
C2 -2.568432498216E-02 -2.493666210592E-01 -3.264931358050E-01
C3  7.890730700354E-02  3.531308714423E-01  4.002935703758E-01
C4 -7.890730700354E-02 -3.531308714423E-01 -4.002935703758E-01
C5  2.910298852714E-01  4.412096436493E-01  4.162982196255E-01
C6 -2.910298852714E-01 -4.412096436493E-01 -4.162982196255E-01
C7  4.462010238974E-01  4.203663359984E-01  3.590830519224E-01
C8 -4.462010238974E-01 -4.203663359984E-01 -3.590830519224E-01
C9  3.936902633374E-01  3.215440613923E-01  2.783761395853E-01
C10 -3.936902633374E-01 -3.215440613923E-01 -2.783761395853E-01
C11  1.790932075973E-01  2.305216192820E-01  2.624956095628E-01
C12 -1.790932075973E-01 -2.305216192820E-01 -2.624956095628E-01
C13  1.304233899964E-01  1.193358410152E-01  1.883757281865E-01
C14 -1.304233899964E-01 -1.193358410152E-01 -1.883757281865E-01
C15  2.842448577044E-01  9.588725877394E-02  1.265255562910E-01
C16 -2.842448577044E-01 -9.588725877394E-02 -1.265255562910E-01
C17  4.979331457779E-01  1.903840830644E-01  1.417184642703E-01
C18 -4.979331457779E-01 -1.903840830644E-01 -1.417184642703E-01
C19 -4.527653518028E-01  2.988809379147E-01  2.188818645461E-01
C20  4.527653518028E-01 -2.988809379147E-01 -2.188818645461E-01
C21  2.380388690501E-01 -2.106306672718E-02  5.288003600390E-02
C22 -2.380388690501E-01  2.106306672718E-02 -5.288003600390E-02
C23  3.933017356471E-01 -4.797754869090E-02 -7.424285669148E-03
C24 -3.933017356471E-01  4.797754869090E-02  7.424285669148E-03
C25 -3.457130178069E-01  1.617291182805E-01  8.253567103559E-02
C26  3.457130178069E-01 -1.617291182805E-01 -8.253567103559E-02
C27 -4.506093667195E-01 -1.082003704219E-01  3.068020872686E-01
C28  4.506093667195E-01  1.082003704219E-01 -3.068020872686E-01
C29 -4.099449736531E-01 -6.736723104138E-02  3.893828825883E-01
C30  4.099449736531E-01  6.736723104138E-02 -3.893828825883E-01
C31 -2.229673195794E-01 -1.192725600403E-01  4.254359716894E-01
C32  2.229673195794E-01  1.192725600403E-01 -4.254359716894E-01
C33 -8.034858056544E-02 -2.080449014163E-01  3.774380407956E-01
C34  8.034858056544E-02  2.080449014163E-01 -3.774380407956E-01
C35 -1.164905458686E-01 -2.544286795296E-01  2.902658401947E-01
C36  1.164905458686E-01  2.544286795296E-01 -2.902658401947E-01
C37 -3.064010185174E-01 -2.032168319320E-01  2.540737144237E-01
C38  3.064010185174E-01  2.032168319320E-01 -2.540737144237E-01
C39 -3.440827774817E-01 -2.453988746343E-01  1.696988441977E-01
C40  3.440827774817E-01  2.453988746343E-01 -1.696988441977E-01
C41 -2.027141898726E-01 -3.409679514394E-01  1.180776332009E-01
C42  2.027141898726E-01  3.409679514394E-01 -1.180776332009E-01
C43 -1.196519376602E-02 -3.916483107424E-01  1.544129240163E-01
C44  1.196519376602E-02  3.916483107424E-01 -1.544129240163E-01
C45  2.749498444345E-02 -3.426420464727E-01  2.401911367055E-01
C46 -2.749498444345E-02  3.426420464727E-01 -2.401911367055E-01
C47 -2.398060443329E-01 -3.844433990471E-01  3.304729138256E-02
C48  2.398060443329E-01  3.844433990471E-01 -3.304729138256E-02
C49 -9.603828221462E-02 -4.756104874196E-01 -1.811007501410E-02
C50  9.603828221462E-02  4.756104874196E-01  1.811007501410E-02
C51  1.347234325764E-01 -4.773897235531E-01  1.034051244304E-01
C52 -1.347234325764E-01  4.773897235531E-01 -1.034051244304E-01
H53 -1.307349365491E-01  1.743778297394E-01  3.154494908669E-01
H54  1.307349365491E-01 -1.743778297394E-01 -3.154494908669E-01
H55 -3.907477877937E-02  3.654484685645E-01  4.483613485111E-01
H56  3.907477877937E-02 -3.654484685645E-01 -4.483613485111E-01
H57  3.300279796433E-01 -4.807743878140E-01  4.763296586724E-01
H58 -3.300279796433E-01  4.807743878140E-01 -4.763296586724E-01
H59 -3.864911133335E-01  4.737088959184E-01  3.741396164266E-01
H60  3.864911133335E-01 -4.737088959184E-01 -3.741396164266E-01
H61 -2.760657598611E-02  4.572587161617E-02  1.775995823897E-01
H62  2.760657598611E-02 -4.572587161617E-02 -1.775995823897E-01
H63 -2.886281563106E-01  3.545168363228E-01  2.335856632646E-01
H64  2.886281563106E-01 -3.545168363228E-01 -2.335856632646E-01
H65  8.254070600576E-02 -9.949029205155E-02  4.353030808031E-02
H66 -8.254070600576E-02  9.949029205155E-02 -4.353030808031E-02
H67 -1.846040776904E-01  2.283097978438E-01  9.488862549419E-02
H68  1.846040776904E-01 -2.283097978438E-01 -9.488862549419E-02
H69  4.100786729651E-01 -6.557171670642E-02  2.787647375288E-01
H70 -4.100786729651E-01  6.557171670642E-02 -2.787647375288E-01
H71  4.838590933898E-01  1.030051207738E-02  4.285572694990E-01
H72 -4.838590933898E-01 -1.030051207738E-02 -4.285572694990E-01
H73 -1.939509669379E-01 -8.596393194497E-02  4.914520699555E-01
H74  1.939509669379E-01  8.596393194497E-02 -4.914520699555E-01
H75  6.830518160432E-02 -2.383723601206E-01  4.035796520935E-01
H76 -6.830518160432E-02  2.383723601206E-01 -4.035796520935E-01
H77 -4.830152941764E-01 -2.015478912126E-01  1.418634901821E-01
H78  4.830152941764E-01  2.015478912126E-01 -1.418634901821E-01
H79  1.724074155531E-01 -3.770219309385E-01  2.673422569548E-01
H80 -1.724074155531E-01  3.770219309385E-01 -2.673422569548E-01
H81 -3.798073417193E-01 -3.428640505608E-01  5.279695900289E-03
H82  3.798073417193E-01  3.428640505608E-01 -5.279695900289E-03
H83  2.829087587703E-01  4.935529699421E-01  1.302863593683E-01
H84 -2.829087587703E-01 -4.935529699421E-01 -1.302863593683E-01


#===END

data_OPT_STEP_12

_symmetry_space_group_name_H-M 'P 1'
_cell_length_a      6.29918545
_cell_length_b      7.08955553
_cell_length_c     16.16166605
_cell_angle_alpha   95.897520
_cell_angle_beta   90.078882
_cell_angle_gamma   96.776320

loop_
_atom_site_label
_atom_site_fract_x
_atom_site_fract_y
_atom_site_fract_z
C1  2.371325523450E-02  2.510860142011E-01  3.264865202766E-01
C2 -2.371325523450E-02 -2.510860142011E-01 -3.264865202766E-01
C3  7.844963322098E-02  3.535669067309E-01  4.005947154030E-01
C4 -7.844963322098E-02 -3.535669067309E-01 -4.005947154030E-01
C5  2.917580770946E-01  4.416657251458E-01  4.165068821028E-01
C6 -2.917580770946E-01 -4.416657251458E-01 -4.165068821028E-01
C7  4.466035815944E-01  4.220678878762E-01  3.589057905966E-01
C8 -4.466035815944E-01 -4.220678878762E-01 -3.589057905966E-01
C9  3.958833319873E-01  3.190199041795E-01  2.792398187215E-01
C10 -3.958833319873E-01 -3.190199041795E-01 -2.792398187215E-01
C11  1.796049452117E-01  2.284109976193E-01  2.632906439181E-01
C12 -1.796049452117E-01 -2.284109976193E-01 -2.632906439181E-01
C13  1.305942999398E-01  1.166465057648E-01  1.892255024623E-01
C14 -1.305942999398E-01 -1.166465057648E-01 -1.892255024623E-01
C15  2.857621193785E-01  9.163941625137E-02  1.276763993916E-01
C16 -2.857621193785E-01 -9.163941625137E-02 -1.276763993916E-01
C17  4.996083699868E-01  1.887168815891E-01  1.422652880581E-01
C18 -4.996083699868E-01 -1.887168815891E-01 -1.422652880581E-01
C19 -4.507392386510E-01  2.975732891893E-01  2.193396465654E-01
C20  4.507392386510E-01 -2.975732891893E-01 -2.193396465654E-01
C21  2.384537556713E-01 -2.462426389809E-02  5.375106095516E-02
C22 -2.384537556713E-01  2.462426389809E-02 -5.375106095516E-02
C23  3.934293382253E-01 -4.979768114768E-02 -7.013617716663E-03
C24 -3.934293382253E-01  4.979768114768E-02  7.013617716663E-03
C25 -3.459513173564E-01  1.646767664906E-01  8.189368898999E-02
C26  3.459513173564E-01 -1.646767664906E-01 -8.189368898999E-02
C27 -4.503398981453E-01 -1.070393249625E-01  3.070658597949E-01
C28  4.503398981453E-01  1.070393249625E-01 -3.070658597949E-01
C29 -4.087245707544E-01 -6.593306058750E-02  3.897114225514E-01
C30  4.087245707544E-01  6.593306058750E-02 -3.897114225514E-01
C31 -2.214348374087E-01 -1.190279919790E-01  4.258035014281E-01
C32  2.214348374087E-01  1.190279919790E-01 -4.258035014281E-01
C33 -7.848683442849E-02 -2.076913566001E-01  3.776975739232E-01
C34  7.848683442849E-02  2.076913566001E-01 -3.776975739232E-01
C35 -1.151709565536E-01 -2.538628463425E-01  2.904605340904E-01
C36  1.151709565536E-01  2.538628463425E-01 -2.904605340904E-01
C37 -3.065687692416E-01 -2.029719768211E-01  2.542965789107E-01
C38  3.065687692416E-01  2.029719768211E-01 -2.542965789107E-01
C39 -3.454665508934E-01 -2.460904344137E-01  1.699416485054E-01
C40  3.454665508934E-01  2.460904344137E-01 -1.699416485054E-01
C41 -2.021160441878E-01 -3.393165848364E-01  1.180978197679E-01
C42  2.021160441878E-01  3.393165848364E-01 -1.180978197679E-01
C43 -1.033464380815E-02 -3.903399672205E-01  1.544505988566E-01
C44  1.033464380815E-02  3.903399672205E-01 -1.544505988566E-01
C45  2.838141423817E-02 -3.432139869089E-01  2.403679912956E-01
C46 -2.838141423817E-02  3.432139869089E-01 -2.403679912956E-01
C47 -2.407970888403E-01 -3.843194343391E-01  3.312340404304E-02
C48  2.407970888403E-01  3.843194343391E-01 -3.312340404304E-02
C49 -9.665913315342E-02 -4.754912610232E-01 -1.812164722056E-02
C50  9.665913315342E-02  4.754912610232E-01  1.812164722056E-02
C51  1.351152140560E-01 -4.785150476462E-01  1.035094655658E-01
C52 -1.351152140560E-01  4.785150476462E-01 -1.035094655658E-01
H53 -1.351721547457E-01  1.783834443001E-01  3.149565208084E-01
H54  1.351721547457E-01 -1.783834443001E-01 -3.149565208084E-01
H55 -4.000041711691E-02  3.665363481752E-01  4.486981405810E-01
H56  4.000041711691E-02 -3.665363481752E-01 -4.486981405810E-01
H57  3.312834468843E-01 -4.796150675398E-01  4.764657670623E-01
H58 -3.312834468843E-01  4.796150675398E-01 -4.764657670623E-01
H59 -3.867643548369E-01  4.786417289849E-01  3.731859254174E-01
H60  3.867643548369E-01 -4.786417289849E-01 -3.731859254174E-01
H61 -2.851544481095E-02  4.284323993522E-02  1.784600698648E-01
H62  2.851544481095E-02 -4.284323993522E-02 -1.784600698648E-01
H63 -2.864531832411E-01  3.556009595961E-01  2.335043857562E-01
H64  2.864531832411E-01 -3.556009595961E-01 -2.335043857562E-01
H65  8.131058599988E-02 -1.023919820852E-01  4.415093963604E-02
H66 -8.131058599988E-02  1.023919820852E-01 -4.415093963604E-02
H67 -1.846976616958E-01  2.335291395226E-01  9.374086617884E-02
H68  1.846976616958E-01 -2.335291395226E-01 -9.374086617884E-02
H69  4.085854116630E-01 -6.564153216109E-02  2.791524582304E-01
H70 -4.085854116630E-01  6.564153216109E-02 -2.791524582304E-01
H71  4.842449152894E-01  1.149203317699E-02  4.288405245196E-01
H72 -4.842449152894E-01 -1.149203317699E-02 -4.288405245196E-01
H73 -1.910910036484E-01 -8.470744250861E-02  4.918615806600E-01
H74  1.910910036484E-01  8.470744250861E-02 -4.918615806600E-01
H75  6.990358388999E-02 -2.399660486878E-01  4.037081207982E-01
H76 -6.990358388999E-02  2.399660486878E-01 -4.037081207982E-01
H77 -4.865950700649E-01 -2.042732796678E-01  1.422660494350E-01
H78  4.865950700649E-01  2.042732796678E-01 -1.422660494350E-01
H79  1.738064513412E-01 -3.782677589675E-01  2.675725111823E-01
H80 -1.738064513412E-01  3.782677589675E-01 -2.675725111823E-01
H81 -3.832472327226E-01 -3.450026600061E-01  5.510750574040E-03
H82  3.832472327226E-01  3.450026600061E-01 -5.510750574040E-03
H83  2.832519637818E-01  4.909774830053E-01  1.304756146190E-01
H84 -2.832519637818E-01 -4.909774830053E-01 -1.304756146190E-01


#===END

data_OPT_STEP_13

_symmetry_space_group_name_H-M 'P 1'
_cell_length_a      6.28010363
_cell_length_b      7.11570395
_cell_length_c     16.15371360
_cell_angle_alpha   96.120219
_cell_angle_beta   90.181367
_cell_angle_gamma   96.873451

loop_
_atom_site_label
_atom_site_fract_x
_atom_site_fract_y
_atom_site_fract_z
C1  2.763940385391E-02  2.445753864547E-01  3.287279539081E-01
C2 -2.763940385391E-02 -2.445753864547E-01 -3.287279539081E-01
C3  8.133317539048E-02  3.495389586251E-01  4.023282688061E-01
C4 -8.133317539048E-02 -3.495389586251E-01 -4.023282688061E-01
C5  2.927572807365E-01  4.418724834987E-01  4.172756549310E-01
C6 -2.927572807365E-01 -4.418724834987E-01 -4.172756549310E-01
C7  4.450887876359E-01  4.270574640124E-01  3.583984600417E-01
C8 -4.450887876359E-01 -4.270574640124E-01 -3.583984600417E-01
C9  3.935417612990E-01  3.245952488985E-01  2.784805893654E-01
C10 -3.935417612990E-01 -3.245952488985E-01 -2.784805893654E-01
C11  1.801136971903E-01  2.278201706584E-01  2.639693527013E-01
C12 -1.801136971903E-01 -2.278201706584E-01 -2.639693527013E-01
C13  1.289184028684E-01  1.193165595477E-01  1.889364989688E-01
C14 -1.289184028684E-01 -1.193165595477E-01 -1.889364989688E-01
C15  2.842090501103E-01  9.392884990039E-02  1.273221883939E-01
C16 -2.842090501103E-01 -9.392884990039E-02 -1.273221883939E-01
C17  4.992668074187E-01  1.905836968264E-01  1.421232961865E-01
C18 -4.992668074187E-01 -1.905836968264E-01 -1.421232961865E-01
C19 -4.540226950115E-01  3.051610251289E-01  2.178509296022E-01
C20  4.540226950115E-01 -3.051610251289E-01 -2.178509296022E-01
C21  2.371392361590E-01 -2.340142784400E-02  5.346375396508E-02
C22 -2.371392361590E-01  2.340142784400E-02 -5.346375396508E-02
C23  3.922358761558E-01 -4.871352674275E-02 -7.363103771168E-03
C24 -3.922358761558E-01  4.871352674275E-02  7.363103771168E-03
C25 -3.464642808630E-01  1.671189525516E-01  8.149930257919E-02
C26  3.464642808630E-01 -1.671189525516E-01 -8.149930257919E-02
C27 -4.580244683923E-01 -1.158113456899E-01  3.076219764092E-01
C28  4.580244683923E-01  1.158113456899E-01 -3.076219764092E-01
C29 -4.139242125180E-01 -7.095215722292E-02  3.902240409091E-01
C30  4.139242125180E-01  7.095215722292E-02 -3.902240409091E-01
C31 -2.220445702021E-01 -1.177116782549E-01  4.261323554079E-01
C32  2.220445702021E-01  1.177116782549E-01 -4.261323554079E-01
C33 -7.749452620225E-02 -2.043658547269E-01  3.779389145526E-01
C34  7.749452620225E-02  2.043658547269E-01 -3.779389145526E-01
C35 -1.170548104565E-01 -2.550683104929E-01  2.908411412906E-01
C36  1.170548104565E-01  2.550683104929E-01 -2.908411412906E-01
C37 -3.124137674252E-01 -2.093005639300E-01  2.547351636263E-01
C38  3.124137674252E-01  2.093005639300E-01 -2.547351636263E-01
C39 -3.513711019801E-01 -2.529730844535E-01  1.702809894737E-01
C40  3.513711019801E-01  2.529730844535E-01 -1.702809894737E-01
C41 -2.042861970231E-01 -3.412438615510E-01  1.181954193770E-01
C42  2.042861970231E-01  3.412438615510E-01 -1.181954193770E-01
C43 -8.501321773323E-03 -3.871513800114E-01  1.544843664814E-01
C44  8.501321773323E-03  3.871513800114E-01 -1.544843664814E-01
C45  2.692177829903E-02 -3.443115965269E-01  2.407668431007E-01
C46 -2.692177829903E-02  3.443115965269E-01 -2.407668431007E-01
C47 -2.419989876979E-01 -3.852464685553E-01  3.302721353851E-02
C48  2.419989876979E-01  3.852464685553E-01 -3.302721353851E-02
C49 -9.726406127339E-02 -4.759231824872E-01 -1.823175754030E-02
C50  9.726406127339E-02  4.759231824872E-01  1.823175754030E-02
C51  1.348434871706E-01 -4.788913259052E-01  1.037890810142E-01
C52 -1.348434871706E-01  4.788913259052E-01 -1.037890810142E-01
H53 -1.317221381002E-01  1.705682056317E-01  3.175314939610E-01
H54  1.317221381002E-01 -1.705682056317E-01 -3.175314939610E-01
H55 -3.769541856152E-02  3.634016678653E-01  4.503869149867E-01
H56  3.769541856152E-02 -3.634016678653E-01 -4.503869149867E-01
H57  3.330507913000E-01 -4.786412806068E-01  4.772886481183E-01
H58 -3.330507913000E-01  4.786412806068E-01 -4.772886481183E-01
H59 -3.897376852740E-01  4.880956362084E-01  3.717084779107E-01
H60  3.897376852740E-01 -4.880956362084E-01 -3.717084779107E-01
H61 -3.228823133489E-02  4.748919153561E-02  1.776299391628E-01
H62  3.228823133489E-02 -4.748919153561E-02 -1.776299391628E-01
H63 -2.919933754860E-01  3.702186826176E-01  2.303829480322E-01
H64  2.919933754860E-01 -3.702186826176E-01 -2.303829480322E-01
H65  7.658977186155E-02 -9.691767596975E-02  4.264432866898E-02
H66 -7.658977186155E-02  9.691767596975E-02 -4.264432866898E-02
H67 -1.859779803326E-01  2.395977101275E-01  9.253660128064E-02
H68  1.859779803326E-01 -2.395977101275E-01 -9.253660128064E-02
H69  3.960625609720E-01 -8.064759398460E-02  2.800133227868E-01
H70 -3.960625609720E-01  8.064759398460E-02 -2.800133227868E-01
H71  4.766524734746E-01  4.431947039751E-03  4.292610926014E-01
H72 -4.766524734746E-01 -4.431947039751E-03 -4.292610926014E-01
H73 -1.899147996098E-01 -8.111068412997E-02  4.922868419572E-01
H74  1.899147996098E-01  8.111068412997E-02 -4.922868419572E-01
H75  7.039691762310E-02 -2.383514151721E-01  4.039537505929E-01
H76 -7.039691762310E-02  2.383514151721E-01 -4.039537505929E-01
H77 -4.970412088202E-01 -2.172193951687E-01  1.428653878308E-01
H78  4.970412088202E-01  2.172193951687E-01 -1.428653878308E-01
H79  1.720654115322E-01 -3.806763051095E-01  2.682354447228E-01
H80 -1.720654115322E-01  3.806763051095E-01 -2.682354447228E-01
H81 -3.872929511104E-01 -3.492533743171E-01  5.487328005074E-03
H82  3.872929511104E-01  3.492533743171E-01 -5.487328005074E-03
H83  2.794837976737E-01  4.846767601003E-01  1.312781570579E-01
H84 -2.794837976737E-01 -4.846767601003E-01 -1.312781570579E-01


#===END

data_OPT_STEP_14

_symmetry_space_group_name_H-M 'P 1'
_cell_length_a      6.25371252
_cell_length_b      7.12591025
_cell_length_c     16.13114363
_cell_angle_alpha   95.979999
_cell_angle_beta   90.629611
_cell_angle_gamma   95.408437

loop_
_atom_site_label
_atom_site_fract_x
_atom_site_fract_y
_atom_site_fract_z
C1  2.995022377095E-02  2.425741072717E-01  3.303383545203E-01
C2 -2.995022377095E-02 -2.425741072717E-01 -3.303383545203E-01
C3  8.134668855053E-02  3.494355290190E-01  4.033035583332E-01
C4 -8.134668855053E-02 -3.494355290190E-01 -4.033035583332E-01
C5  2.921215926776E-01  4.392035925864E-01  4.183403992000E-01
C6 -2.921215926776E-01 -4.392035925864E-01 -4.183403992000E-01
C7  4.444568549508E-01  4.228105674878E-01  3.594408019295E-01
C8 -4.444568549508E-01 -4.228105674878E-01 -3.594408019295E-01
C9  3.950757222933E-01  3.181905230485E-01  2.802088117909E-01
C10 -3.950757222933E-01 -3.181905230485E-01 -2.802088117909E-01
C11  1.828564179519E-01  2.231160736241E-01  2.658506465627E-01
C12 -1.828564179519E-01 -2.231160736241E-01 -2.658506465627E-01
C13  1.327074458552E-01  1.149537139600E-01  1.908884027223E-01
C14 -1.327074458552E-01 -1.149537139600E-01 -1.908884027223E-01
C15  2.862999146739E-01  9.093354998176E-02  1.285512626414E-01
C16 -2.862999146739E-01 -9.093354998176E-02 -1.285512626414E-01
C17 -4.985630915009E-01  1.837856346477E-01  1.437403367342E-01
C18  4.985630915009E-01 -1.837856346477E-01 -1.437403367342E-01
C19 -4.525126777212E-01  2.974529781989E-01  2.194724933466E-01
C20  4.525126777212E-01 -2.974529781989E-01 -2.194724933466E-01
C21  2.390138561953E-01 -2.350525808302E-02  5.413628384927E-02
C22 -2.390138561953E-01  2.350525808302E-02 -5.413628384927E-02
C23  3.920747794918E-01 -4.661886656137E-02 -7.623311748545E-03
C24 -3.920747794918E-01  4.661886656137E-02  7.623311748545E-03
C25 -3.451087796513E-01  1.605026632042E-01  8.269824796905E-02
C26  3.451087796513E-01 -1.605026632042E-01 -8.269824796905E-02
C27 -4.572312942001E-01 -1.090026355249E-01  3.077429019970E-01
C28  4.572312942001E-01  1.090026355249E-01 -3.077429019970E-01
C29 -4.136452168426E-01 -6.725765366612E-02  3.906211968532E-01
C30  4.136452168426E-01  6.725765366612E-02 -3.906211968532E-01
C31 -2.194342013079E-01 -1.154866911603E-01  4.265171798911E-01
C32  2.194342013079E-01  1.154866911603E-01 -4.265171798911E-01
C33 -7.352749682375E-02 -2.025155531749E-01  3.782074961498E-01
C34  7.352749682375E-02  2.025155531749E-01 -3.782074961498E-01
C35 -1.126174876014E-01 -2.503842232776E-01  2.908641449414E-01
C36  1.126174876014E-01  2.503842232776E-01 -2.908641449414E-01
C37 -3.102120712851E-01 -2.026993096313E-01  2.546976410899E-01
C38  3.102120712851E-01  2.026993096313E-01 -2.546976410899E-01
C39 -3.505252777464E-01 -2.462495020886E-01  1.701943317297E-01
C40  3.505252777464E-01  2.462495020886E-01 -1.701943317297E-01
C41 -2.043107868007E-01 -3.382108898569E-01  1.182125027717E-01
C42  2.043107868007E-01  3.382108898569E-01 -1.182125027717E-01
C43 -4.182843223188E-03 -3.830205167022E-01  1.543720451784E-01
C44  4.182843223188E-03  3.830205167022E-01 -1.543720451784E-01
C45  3.305128014210E-02 -3.396369305155E-01  2.406428407688E-01
C46 -3.305128014210E-02  3.396369305155E-01 -2.406428407688E-01
C47 -2.446490873073E-01 -3.840030708357E-01  3.312146417007E-02
C48  2.446490873073E-01  3.840030708357E-01 -3.312146417007E-02
C49 -9.958392401529E-02 -4.765985725924E-01 -1.817272593900E-02
C50  9.958392401529E-02  4.765985725924E-01  1.817272593900E-02
C51  1.403929115711E-01 -4.755488662180E-01  1.035878318439E-01
C52 -1.403929115711E-01  4.755488662180E-01 -1.035878318439E-01
H53 -1.299404030949E-01  1.713438436124E-01  3.188996319620E-01
H54  1.299404030949E-01 -1.713438436124E-01 -3.188996319620E-01
H55 -3.836267200646E-02  3.656879410551E-01  4.510659045042E-01
H56  3.836267200646E-02 -3.656879410551E-01 -4.510659045042E-01
H57  3.316097947293E-01 -4.798646203596E-01  4.779399485112E-01
H58 -3.316097947293E-01  4.798646203596E-01 -4.779399485112E-01
H59 -3.937414034529E-01  4.880253792860E-01  3.714305014891E-01
H60  3.937414034529E-01 -4.880253792860E-01 -3.714305014891E-01
H61 -2.817707474440E-02  4.446321086866E-02  1.796285601573E-01
H62  2.817707474440E-02 -4.446321086866E-02 -1.796285601573E-01
H63 -2.925880400628E-01  3.652835992066E-01  2.310004188072E-01
H64  2.925880400628E-01 -3.652835992066E-01 -2.310004188072E-01
H65  7.792027041004E-02 -9.406817422849E-02  4.290483708595E-02
H66 -7.792027041004E-02  9.406817422849E-02 -4.290483708595E-02
H67 -1.855728471330E-01  2.330006739379E-01  9.337979961601E-02
H68  1.855728471330E-01 -2.330006739379E-01 -9.337979961601E-02
H69  3.954206672164E-01 -7.241161239529E-02  2.801727011000E-01
H70 -3.954206672164E-01  7.241161239529E-02 -2.801727011000E-01
H71  4.744823706215E-01  6.598309353751E-03  4.297816565403E-01
H72 -4.744823706215E-01 -6.598309353751E-03 -4.297816565403E-01
H73 -1.874817665821E-01 -8.099182647449E-02  4.928988514922E-01
H74  1.874817665821E-01  8.099182647449E-02 -4.928988514922E-01
H75  7.376254924732E-02 -2.409230076533E-01  4.043590415836E-01
H76 -7.376254924732E-02  2.409230076533E-01 -4.043590415836E-01
H77 -4.987699511668E-01 -2.108675738734E-01  1.428970233873E-01
H78  4.987699511668E-01  2.108675738734E-01 -1.428970233873E-01
H79  1.798566059654E-01 -3.771052074100E-01  2.681387431865E-01
H80 -1.798566059654E-01  3.771052074100E-01 -2.681387431865E-01
H81 -3.933653279777E-01 -3.495286459148E-01  5.759969762777E-03
H82  3.933653279777E-01  3.495286459148E-01 -5.759969762777E-03
H83  2.863326935995E-01  4.863687069794E-01  1.311262629862E-01
H84 -2.863326935995E-01 -4.863687069794E-01 -1.311262629862E-01


#===END

data_OPT_STEP_15

_symmetry_space_group_name_H-M 'P 1'
_cell_length_a      6.20644364
_cell_length_b      7.10917884
_cell_length_c     16.09601047
_cell_angle_alpha   95.970395
_cell_angle_beta   90.417654
_cell_angle_gamma   96.490993

loop_
_atom_site_label
_atom_site_fract_x
_atom_site_fract_y
_atom_site_fract_z
C1  2.434199569499E-02  2.449929260836E-01  3.298609015119E-01
C2 -2.434199569499E-02 -2.449929260836E-01 -3.298609015119E-01
C3  7.688683314839E-02  3.529586090273E-01  4.029602588825E-01
C4 -7.688683314839E-02 -3.529586090273E-01 -4.029602588825E-01
C5  2.923245167914E-01  4.428339233138E-01  4.186123727131E-01
C6 -2.923245167914E-01 -4.428339233138E-01 -4.186123727131E-01
C7  4.463096502462E-01  4.278696472946E-01  3.594213647972E-01
C8 -4.463096502462E-01 -4.278696472946E-01 -3.594213647972E-01
C9  3.968196818613E-01  3.190740923334E-01  2.807667419734E-01
C10 -3.968196818613E-01 -3.190740923334E-01 -2.807667419734E-01
C11  1.810469702805E-01  2.223205358375E-01  2.663158594903E-01
C12 -1.810469702805E-01 -2.223205358375E-01 -2.663158594903E-01
C13  1.324696844305E-01  1.079898721998E-01  1.925227813742E-01
C14 -1.324696844305E-01 -1.079898721998E-01 -1.925227813742E-01
C15  2.850449287999E-01  8.936071701789E-02  1.289876999645E-01
C16 -2.850449287999E-01 -8.936071701789E-02 -1.289876999645E-01
C17 -4.981887244426E-01  1.868574331673E-01  1.434493424342E-01
C18  4.981887244426E-01 -1.868574331673E-01 -1.434493424342E-01
C19 -4.501346213200E-01  3.009996294388E-01  2.193814700046E-01
C20  4.501346213200E-01 -3.009996294388E-01 -2.193814700046E-01
C21  2.381015249488E-01 -2.863897015878E-02  5.517965928895E-02
C22 -2.381015249488E-01  2.863897015878E-02 -5.517965928895E-02
C23  3.916959434452E-01 -4.945000601524E-02 -7.098478530497E-03
C24 -3.916959434452E-01  4.945000601524E-02  7.098478530497E-03
C25 -3.430451116161E-01  1.639506735559E-01  8.231874698936E-02
C26  3.430451116161E-01 -1.639506735559E-01 -8.231874698936E-02
C27 -4.588072226969E-01 -1.111336854914E-01  3.080915005632E-01
C28  4.588072226969E-01  1.111336854914E-01 -3.080915005632E-01
C29 -4.159757194932E-01 -7.008648994562E-02  3.912392185707E-01
C30  4.159757194932E-01  7.008648994562E-02 -3.912392185707E-01
C31 -2.223621784242E-01 -1.185449839192E-01  4.274300016064E-01
C32  2.223621784242E-01  1.185449839192E-01 -4.274300016064E-01
C33 -7.653456885631E-02 -2.057953641058E-01  3.792016582990E-01
C34  7.653456885631E-02  2.057953641058E-01 -3.792016582990E-01
C35 -1.149345011271E-01 -2.530602190304E-01  2.915842597312E-01
C36  1.149345011271E-01  2.530602190304E-01 -2.915842597312E-01
C37 -3.113062556749E-01 -2.040520035876E-01  2.550152768385E-01
C38  3.113062556749E-01  2.040520035876E-01 -2.550152768385E-01
C39 -3.516060322676E-01 -2.478686671005E-01  1.703165358057E-01
C40  3.516060322676E-01  2.478686671005E-01 -1.703165358057E-01
C41 -2.081141419978E-01 -3.436778145633E-01  1.186111986634E-01
C42  2.081141419978E-01  3.436778145633E-01 -1.186111986634E-01
C43 -8.740601130606E-03 -3.892486249988E-01  1.551048729992E-01
C44  8.740601130606E-03  3.892486249988E-01 -1.551048729992E-01
C45  3.180061881377E-02 -3.408369125227E-01  2.412753339179E-01
C46 -3.180061881377E-02  3.408369125227E-01 -2.412753339179E-01
C47 -2.466449293386E-01 -3.871372850440E-01  3.317011951710E-02
C48  2.466449293386E-01  3.871372850440E-01 -3.317011951710E-02
C49 -9.957426050666E-02 -4.767385315433E-01 -1.830887543516E-02
C50  9.957426050666E-02  4.767385315433E-01  1.830887543516E-02
C51  1.398994685192E-01 -4.759087228044E-01  1.039599342665E-01
C52 -1.398994685192E-01  4.759087228044E-01 -1.039599342665E-01
H53 -1.410147853000E-01  1.781859246340E-01  3.170945284212E-01
H54  1.410147853000E-01 -1.781859246340E-01 -3.170945284212E-01
H55 -4.308006816218E-02  3.667190664257E-01  4.512243177554E-01
H56  4.308006816218E-02 -3.667190664257E-01 -4.512243177554E-01
H57  3.339399132467E-01 -4.762975686382E-01  4.785689880064E-01
H58 -3.339399132467E-01  4.762975686382E-01 -4.785689880064E-01
H59 -3.930092552499E-01 -4.989469549062E-01  3.698536607695E-01
H60  3.930092552499E-01  4.989469549062E-01 -3.698536607695E-01
H61 -3.026904781855E-02  3.531177750843E-02  1.815147853222E-01
H62  3.026904781855E-02 -3.531177750843E-02 -1.815147853222E-01
H63 -2.901158251511E-01  3.754864186448E-01  2.296022029095E-01
H64  2.901158251511E-01 -3.754864186448E-01 -2.296022029095E-01
H65  7.410506984849E-02 -9.932441824339E-02  4.365233295318E-02
H66 -7.410506984849E-02  9.932441824339E-02 -4.365233295318E-02
H67 -1.814210764077E-01  2.384285885548E-01  9.278490738435E-02
H68  1.814210764077E-01 -2.384285885548E-01 -9.278490738435E-02
H69  3.933799372198E-01 -7.488285621753E-02  2.804102112043E-01
H70 -3.933799372198E-01  7.488285621753E-02 -2.804102112043E-01
H71  4.719593557157E-01  4.188440618778E-03  4.302610578047E-01
H72 -4.719593557157E-01 -4.188440618778E-03 -4.302610578047E-01
H73 -1.901005094034E-01 -8.375501298343E-02  4.940300379064E-01
H74  1.901005094034E-01  8.375501298343E-02 -4.940300379064E-01
H75  7.383525066886E-02 -2.402685292776E-01  4.052917306913E-01
H76 -7.383525066886E-02  2.402685292776E-01 -4.052917306913E-01
H77  4.976057132038E-01 -2.158109655325E-01  1.430846988457E-01
H78 -4.976057132038E-01  2.158109655325E-01 -1.430846988457E-01
H79  1.815157880830E-01 -3.744665158066E-01  2.687089095829E-01
H80 -1.815157880830E-01  3.744665158066E-01 -2.687089095829E-01
H81 -3.978516283185E-01 -3.558874576309E-01  5.870306457159E-03
H82  3.978516283185E-01  3.558874576309E-01 -5.870306457159E-03
H83  2.881827658023E-01  4.888882161463E-01  1.314950750313E-01
H84 -2.881827658023E-01 -4.888882161463E-01 -1.314950750313E-01


#===END

data_OPT_STEP_16

_symmetry_space_group_name_H-M 'P 1'
_cell_length_a      6.24619718
_cell_length_b      7.12311581
_cell_length_c     16.12101031
_cell_angle_alpha   95.983122
_cell_angle_beta   90.577678
_cell_angle_gamma   95.651486

loop_
_atom_site_label
_atom_site_fract_x
_atom_site_fract_y
_atom_site_fract_z
C1  2.862470296639E-02  2.434143882394E-01  3.301647849315E-01
C2 -2.862470296639E-02 -2.434143882394E-01 -3.301647849315E-01
C3  8.040489193487E-02  3.502645878363E-01  4.032624828166E-01
C4 -8.040489193487E-02 -3.502645878363E-01 -4.032624828166E-01
C5  2.924042614270E-01  4.399141108591E-01  4.185369451825E-01
C6 -2.924042614270E-01 -4.399141108591E-01 -4.185369451825E-01
C7  4.450517815269E-01  4.240324204000E-01  3.595211121620E-01
C8 -4.450517815269E-01 -4.240324204000E-01 -3.595211121620E-01
C9  3.959333362959E-01  3.178148227364E-01  2.805382438131E-01
C10 -3.959333362959E-01 -3.178148227364E-01 -2.805382438131E-01
C11  1.825021196782E-01  2.230514279227E-01  2.659607946849E-01
C12 -1.825021196782E-01 -2.230514279227E-01 -2.659607946849E-01
C13  1.328247432992E-01  1.133650958294E-01  1.912874573084E-01
C14 -1.328247432992E-01 -1.133650958294E-01 -1.912874573084E-01
C15  2.859891311056E-01  9.086716304638E-02  1.286118445439E-01
C16 -2.859891311056E-01 -9.086716304638E-02 -1.286118445439E-01
C17 -4.987636583526E-01  1.850880466387E-01  1.435510310459E-01
C18  4.987636583526E-01 -1.850880466387E-01 -1.435510310459E-01
C19 -4.517373594439E-01  2.980771696509E-01  2.195416566615E-01
C20  4.517373594439E-01 -2.980771696509E-01 -2.195416566615E-01
C21  2.389462281904E-01 -2.459693471285E-02  5.438948037077E-02
C22 -2.389462281904E-01  2.459693471285E-02 -5.438948037077E-02
C23  3.922580557899E-01 -4.759417455823E-02 -7.405865585079E-03
C24 -3.922580557899E-01  4.759417455823E-02  7.405865585079E-03
C25 -3.450859635560E-01  1.619950473609E-01  8.242487097612E-02
C26  3.450859635560E-01 -1.619950473609E-01 -8.242487097612E-02
C27 -4.575537895228E-01 -1.097417198522E-01  3.078515473294E-01
C28  4.575537895228E-01  1.097417198522E-01 -3.078515473294E-01
C29 -4.140561817661E-01 -6.787648275581E-02  3.907926762327E-01
C30  4.140561817661E-01  6.787648275581E-02 -3.907926762327E-01
C31 -2.200958663738E-01 -1.160888182908E-01  4.267711739831E-01
C32  2.200958663738E-01  1.160888182908E-01 -4.267711739831E-01
C33 -7.444427013642E-02 -2.034574212584E-01  3.785152919883E-01
C34  7.444427013642E-02  2.034574212584E-01 -3.785152919883E-01
C35 -1.132787955344E-01 -2.512042472369E-01  2.910865832068E-01
C36  1.132787955344E-01  2.512042472369E-01 -2.910865832068E-01
C37 -3.104348303524E-01 -2.031971985861E-01  2.547990128721E-01
C38  3.104348303524E-01  2.031971985861E-01 -2.547990128721E-01
C39 -3.507481323095E-01 -2.468881660566E-01  1.702431415100E-01
C40  3.507481323095E-01  2.468881660566E-01 -1.702431415100E-01
C41 -2.052242513971E-01 -3.397152032084E-01  1.183258847338E-01
C42  2.052242513971E-01  3.397152032084E-01 -1.183258847338E-01
C43 -5.904445812674E-03 -3.854171976245E-01  1.546226692223E-01
C44  5.904445812674E-03  3.854171976245E-01 -1.546226692223E-01
C45  3.253074473632E-02 -3.401902675107E-01  2.408471110840E-01
C46 -3.253074473632E-02  3.401902675107E-01 -2.408471110840E-01
C47 -2.448953719256E-01 -3.846409302801E-01  3.312546156668E-02
C48  2.448953719256E-01  3.846409302801E-01 -3.312546156668E-02
C49 -9.938365881425E-02 -4.764513026813E-01 -1.822217242330E-02
C50  9.938365881425E-02  4.764513026813E-01  1.822217242330E-02
C51  1.399145149376E-01 -4.760314579502E-01  1.037143657813E-01
C52 -1.399145149376E-01  4.760314579502E-01 -1.037143657813E-01
H53 -1.326744752301E-01  1.734868783807E-01  3.183458354517E-01
H54  1.326744752301E-01 -1.734868783807E-01 -3.183458354517E-01
H55 -3.932010661639E-02  3.657874281912E-01  4.511532823678E-01
H56  3.932010661639E-02 -3.657874281912E-01 -4.511532823678E-01
H57  3.324138864447E-01 -4.790325147483E-01  4.782146052180E-01
H58 -3.324138864447E-01  4.790325147483E-01 -4.782146052180E-01
H59 -3.939737586201E-01  4.921904423343E-01  3.709072126720E-01
H60  3.939737586201E-01 -4.921904423343E-01 -3.709072126720E-01
H61 -2.858143551056E-02  4.260159243705E-02  1.800344634820E-01
H62  2.858143551056E-02 -4.260159243705E-02 -1.800344634820E-01
H63 -2.919394678830E-01  3.679760808718E-01  2.306499123046E-01
H64  2.919394678830E-01 -3.679760808718E-01 -2.306499123046E-01
H65  7.720204422829E-02 -9.514348169663E-02  4.308726598962E-02
H66 -7.720204422829E-02  9.514348169663E-02 -4.308726598962E-02
H67 -1.852370984655E-01  2.352487349134E-01  9.296684770592E-02
H68  1.852370984655E-01 -2.352487349134E-01 -9.296684770592E-02
H69  3.949743049124E-01 -7.330912726068E-02  2.802536686369E-01
H70 -3.949743049124E-01  7.330912726068E-02 -2.802536686369E-01
H71  4.740900087524E-01  6.221817495097E-03  4.298910274606E-01
H72 -4.740900087524E-01 -6.221817495097E-03 -4.298910274606E-01
H73 -1.879598812298E-01 -8.139116673054E-02  4.932101592072E-01
H74  1.879598812298E-01  8.139116673054E-02 -4.932101592072E-01
H75  7.374168623814E-02 -2.406009589134E-01  4.046954722066E-01
H76 -7.374168623814E-02  2.406009589134E-01 -4.046954722066E-01
H77 -4.998717404333E-01 -2.127358028531E-01  1.429854345284E-01
H78  4.998717404333E-01  2.127358028531E-01 -1.429854345284E-01
H79  1.800644051148E-01 -3.766617307754E-01  2.683305441466E-01
H80 -1.800644051148E-01  3.766617307754E-01 -2.683305441466E-01
H81 -3.941399302408E-01 -3.508602488924E-01  5.779026414253E-03
H82  3.941399302408E-01  3.508602488924E-01 -5.779026414253E-03
H83  2.865073248759E-01  4.867035949468E-01  1.312475855568E-01
H84 -2.865073248759E-01 -4.867035949468E-01 -1.312475855568E-01


#===END

data_OPT_STEP_17

_symmetry_space_group_name_H-M 'P 1'
_cell_length_a      6.22943851
_cell_length_b      7.12932346
_cell_length_c     16.11177400
_cell_angle_alpha   95.987226
_cell_angle_beta   90.634058
_cell_angle_gamma   95.561334

loop_
_atom_site_label
_atom_site_fract_x
_atom_site_fract_y
_atom_site_fract_z
C1  2.706681525449E-02  2.435619167854E-01  3.299853898910E-01
C2 -2.706681525449E-02 -2.435619167854E-01 -3.299853898910E-01
C3  8.003549970851E-02  3.491836052597E-01  4.035819285954E-01
C4 -8.003549970851E-02 -3.491836052597E-01 -4.035819285954E-01
C5  2.923502107247E-01  4.407921269226E-01  4.186756534585E-01
C6 -2.923502107247E-01 -4.407921269226E-01 -4.186756534585E-01
C7  4.451425608100E-01  4.259303066424E-01  3.594146223191E-01
C8 -4.451425608100E-01 -4.259303066424E-01 -3.594146223191E-01
C9  3.966844589915E-01  3.169019697648E-01  2.809033331393E-01
C10 -3.966844589915E-01 -3.169019697648E-01 -2.809033331393E-01
C11  1.817603410876E-01  2.229156296573E-01  2.659703297420E-01
C12 -1.817603410876E-01 -2.229156296573E-01 -2.659703297420E-01
C13  1.322337042198E-01  1.125347258525E-01  1.914377430304E-01
C14 -1.322337042198E-01 -1.125347258525E-01 -1.914377430304E-01
C15  2.869567367210E-01  8.848644703956E-02  1.292463061509E-01
C16 -2.869567367210E-01 -8.848644703956E-02 -1.292463061509E-01
C17 -4.991135412771E-01  1.859234517480E-01  1.434020778293E-01
C18  4.991135412771E-01 -1.859234517480E-01 -1.434020778293E-01
C19 -4.510376084214E-01  2.982211145358E-01  2.196628702256E-01
C20  4.510376084214E-01 -2.982211145358E-01 -2.196628702256E-01
C21  2.385533422098E-01 -2.465421495664E-02  5.446293696765E-02
C22 -2.385533422098E-01  2.465421495664E-02 -5.446293696765E-02
C23  3.928349817916E-01 -4.868519722223E-02 -7.098302164715E-03
C24 -3.928349817916E-01  4.868519722223E-02  7.098302164715E-03
C25 -3.454849757233E-01  1.634524412222E-01  8.205523829074E-02
C26  3.454849757233E-01 -1.634524412222E-01 -8.205523829074E-02
C27 -4.582072936127E-01 -1.100623152100E-01  3.079425065509E-01
C28  4.582072936127E-01  1.100623152100E-01 -3.079425065509E-01
C29 -4.142152902710E-01 -6.747780971449E-02  3.908908149350E-01
C30  4.142152902710E-01  6.747780971449E-02 -3.908908149350E-01
C31 -2.202045999503E-01 -1.161398942338E-01  4.269633387907E-01
C32  2.202045999503E-01  1.161398942338E-01 -4.269633387907E-01
C33 -7.440834167103E-02 -2.040375509912E-01  3.788113916600E-01
C34  7.440834167103E-02  2.040375509912E-01 -3.788113916600E-01
C35 -1.126526886885E-01 -2.509281853037E-01  2.912413982576E-01
C36  1.126526886885E-01  2.509281853037E-01 -2.912413982576E-01
C37 -3.111067064671E-01 -2.041257524265E-01  2.549401186598E-01
C38  3.111067064671E-01  2.041257524265E-01 -2.549401186598E-01
C39 -3.517742547350E-01 -2.478706961640E-01  1.703334117042E-01
C40  3.517742547350E-01  2.478706961640E-01 -1.703334117042E-01
C41 -2.042266967453E-01 -3.382317574298E-01  1.182587607836E-01
C42  2.042266967453E-01  3.382317574298E-01 -1.182587607836E-01
C43 -6.351310916791E-03 -3.866751774228E-01  1.547814192226E-01
C44  6.351310916791E-03  3.866751774228E-01 -1.547814192226E-01
C45  3.294861637745E-02 -3.406998220910E-01  2.410524682079E-01
C46 -3.294861637745E-02  3.406998220910E-01 -2.410524682079E-01
C47 -2.454706918090E-01 -3.848574825291E-01  3.311200608192E-02
C48  2.454706918090E-01  3.848574825291E-01 -3.311200608192E-02
C49 -9.958456264159E-02 -4.765234847954E-01 -1.824931580159E-02
C50  9.958456264159E-02  4.765234847954E-01  1.824931580159E-02
C51  1.396877581244E-01 -4.771807484565E-01  1.038716232533E-01
C52 -1.396877581244E-01  4.771807484565E-01 -1.038716232533E-01
H53 -1.336812453965E-01  1.717744109357E-01  3.186242807659E-01
H54  1.336812453965E-01 -1.717744109357E-01 -3.186242807659E-01
H55 -3.997353407975E-02  3.639882516950E-01  4.514565742033E-01
H56  3.997353407975E-02 -3.639882516950E-01 -4.514565742033E-01
H57  3.327980743996E-01 -4.774779412640E-01  4.782819459192E-01
H58 -3.327980743996E-01  4.774779412640E-01 -4.782819459192E-01
H59 -3.939003669110E-01  4.960401107120E-01  3.704730790141E-01
H60  3.939003669110E-01 -4.960401107120E-01 -3.704730790141E-01
H61 -2.937566353362E-02  4.141370260280E-02  1.803017962260E-01
H62  2.937566353362E-02 -4.141370260280E-02 -1.803017962260E-01
H63 -2.906428569938E-01  3.694689312760E-01  2.305453168843E-01
H64  2.906428569938E-01 -3.694689312760E-01 -2.305453168843E-01
H65  7.772559928076E-02 -9.737172185035E-02  4.375518213429E-02
H66 -7.772559928076E-02  9.737172185035E-02 -4.375518213429E-02
H67 -1.847030353453E-01  2.359046747125E-01  9.279292920614E-02
H68  1.847030353453E-01 -2.359046747125E-01 -9.279292920614E-02
H69  3.947050481227E-01 -7.234107340783E-02  2.802479141664E-01
H70 -3.947050481227E-01  7.234107340783E-02 -2.802479141664E-01
H71  4.740937265985E-01  7.330490875728E-03  4.299108450058E-01
H72 -4.740937265985E-01 -7.330490875728E-03 -4.299108450058E-01
H73 -1.875206173448E-01 -8.129981291471E-02  4.934132629090E-01
H74  1.875206173448E-01  8.129981291471E-02 -4.934132629090E-01
H75  7.555306514227E-02 -2.389998467555E-01  4.053067064473E-01
H76 -7.555306514227E-02  2.389998467555E-01 -4.053067064473E-01
H77  4.994101514663E-01 -2.123943862029E-01  1.429798209140E-01
H78 -4.994101514663E-01  2.123943862029E-01 -1.429798209140E-01
H79  1.805287224350E-01 -3.778854342648E-01  2.686079079015E-01
H80 -1.805287224350E-01  3.778854342648E-01 -2.686079079015E-01
H81 -3.941147170202E-01 -3.493507835508E-01  5.686148904155E-03
H82  3.941147170202E-01  3.493507835508E-01 -5.686148904155E-03
H83  2.880997169385E-01  4.871882605579E-01  1.313437177651E-01
H84 -2.880997169385E-01 -4.871882605579E-01 -1.313437177651E-01


#===END

data_OPT_STEP_18

_symmetry_space_group_name_H-M 'P 1'
_cell_length_a      6.21332469
_cell_length_b      7.13227513
_cell_length_c     16.10501999
_cell_angle_alpha   95.992642
_cell_angle_beta   90.640056
_cell_angle_gamma   95.732003

loop_
_atom_site_label
_atom_site_fract_x
_atom_site_fract_y
_atom_site_fract_z
C1  2.588041009933E-02  2.440204974936E-01  3.298872892020E-01
C2 -2.588041009933E-02 -2.440204974936E-01 -3.298872892020E-01
C3  7.988446746377E-02  3.490897058778E-01  4.036783209674E-01
C4 -7.988446746377E-02 -3.490897058778E-01 -4.036783209674E-01
C5  2.924803103529E-01  4.422998136260E-01  4.184434886030E-01
C6 -2.924803103529E-01 -4.422998136260E-01 -4.184434886030E-01
C7  4.452617974440E-01  4.281496940126E-01  3.590194264263E-01
C8 -4.452617974440E-01 -4.281496940126E-01 -3.590194264263E-01
C9  3.967428071052E-01  3.178574856367E-01  2.807361316707E-01
C10 -3.967428071052E-01 -3.178574856367E-01 -2.807361316707E-01
C11  1.819055323271E-01  2.217605229003E-01  2.662469084989E-01
C12 -1.819055323271E-01 -2.217605229003E-01 -2.662469084989E-01
C13  1.319076154215E-01  1.111258425689E-01  1.917308290706E-01
C14 -1.319076154215E-01 -1.111258425689E-01 -1.917308290706E-01
C15  2.862852608886E-01  8.864291434722E-02  1.291669047898E-01
C16 -2.862852608886E-01 -8.864291434722E-02 -1.291669047898E-01
C17 -4.986306488066E-01  1.859025723264E-01  1.434677016923E-01
C18  4.986306488066E-01 -1.859025723264E-01 -1.434677016923E-01
C19 -4.508329220724E-01  2.996894967628E-01  2.194364075550E-01
C20  4.508329220724E-01 -2.996894967628E-01 -2.194364075550E-01
C21  2.377678755400E-01 -2.512138169992E-02  5.450610084531E-02
C22 -2.377678755400E-01  2.512138169992E-02 -5.450610084531E-02
C23  3.924468222365E-01 -4.886344060919E-02 -7.100143068020E-03
C24 -3.924468222365E-01  4.886344060919E-02  7.100143068020E-03
C25 -3.447439605259E-01  1.639096891345E-01  8.205120493424E-02
C26  3.447439605259E-01 -1.639096891345E-01 -8.205120493424E-02
C27 -4.581783705540E-01 -1.102105148206E-01  3.080241561240E-01
C28  4.581783705540E-01  1.102105148206E-01 -3.080241561240E-01
C29 -4.141369404716E-01 -6.756104545032E-02  3.910025609482E-01
C30  4.141369404716E-01  6.756104545032E-02 -3.910025609482E-01
C31 -2.206093052562E-01 -1.171931019770E-01  4.271872056792E-01
C32  2.206093052562E-01  1.171931019770E-01 -4.271872056792E-01
C33 -7.446022522444E-02 -2.048280759491E-01  3.790272899170E-01
C34  7.446022522444E-02  2.048280759491E-01 -3.790272899170E-01
C35 -1.129736060650E-01 -2.519901717803E-01  2.914346539972E-01
C36  1.129736060650E-01  2.519901717803E-01 -2.914346539972E-01
C37 -3.106438696449E-01 -2.038270033334E-01  2.550036624995E-01
C38  3.106438696449E-01  2.038270033334E-01 -2.550036624995E-01
C39 -3.520682536060E-01 -2.483544554220E-01  1.704134220515E-01
C40  3.520682536060E-01  2.483544554220E-01 -1.704134220515E-01
C41 -2.053186860405E-01 -3.399298017047E-01  1.184005966514E-01
C42  2.053186860405E-01  3.399298017047E-01 -1.184005966514E-01
C43 -6.565064862933E-03 -3.874486897681E-01  1.549068567323E-01
C44  6.565064862933E-03  3.874486897681E-01 -1.549068567323E-01
C45  3.302516113925E-02 -3.413143002301E-01  2.412310055637E-01
C46 -3.302516113925E-02  3.413143002301E-01 -2.412310055637E-01
C47 -2.462293124768E-01 -3.857327896130E-01  3.316292603056E-02
C48  2.462293124768E-01  3.857327896130E-01 -3.316292603056E-02
C49 -9.940840027919E-02 -4.761483016715E-01 -1.828712931437E-02
C50  9.940840027919E-02  4.761483016715E-01  1.828712931437E-02
C51  1.395535056392E-01 -4.778762970916E-01  1.039861686147E-01
C52 -1.395535056392E-01  4.778762970916E-01 -1.039861686147E-01
H53 -1.353628728114E-01  1.719946225989E-01  3.186125773509E-01
H54  1.353628728114E-01 -1.719946225989E-01 -3.186125773509E-01
H55 -4.014638001984E-02  3.633174385223E-01  4.516375624052E-01
H56  4.014638001984E-02 -3.633174385223E-01 -4.516375624052E-01
H57  3.334210925097E-01 -4.755103865369E-01  4.779807073974E-01
H58 -3.334210925097E-01  4.755103865369E-01 -4.779807073974E-01
H59 -3.932258035929E-01  4.991073719286E-01  3.699781935808E-01
H60  3.932258035929E-01 -4.991073719286E-01 -3.699781935808E-01
H61 -2.895207155189E-02  3.751730686187E-02  1.812175421825E-01
H62  2.895207155189E-02 -3.751730686187E-02 -1.812175421825E-01
H63 -2.897744158491E-01  3.716618603604E-01  2.302590286490E-01
H64  2.897744158491E-01 -3.716618603604E-01 -2.302590286490E-01
H65  7.710298384952E-02 -9.918333409391E-02  4.411019728287E-02
H66 -7.710298384952E-02  9.918333409391E-02 -4.411019728287E-02
H67 -1.833595295662E-01  2.364722786192E-01  9.282995109935E-02
H68  1.833595295662E-01 -2.364722786192E-01 -9.282995109935E-02
H69  3.942619560252E-01 -7.290740186854E-02  2.803311732142E-01
H70 -3.942619560252E-01  7.290740186854E-02 -2.803311732142E-01
H71  4.746088116320E-01  8.034143041622E-03  4.299261875824E-01
H72 -4.746088116320E-01 -8.034143041622E-03 -4.299261875824E-01
H73 -1.873254412145E-01 -8.184652383503E-02  4.936098408590E-01
H74  1.873254412145E-01  8.184652383503E-02 -4.936098408590E-01
H75  7.628562159918E-02 -2.387990681132E-01  4.056249788927E-01
H76 -7.628562159918E-02  2.387990681132E-01 -4.056249788927E-01
H77  4.996967532622E-01 -2.116671690317E-01  1.429760935415E-01
H78 -4.996967532622E-01  2.116671690317E-01 -1.429760935415E-01
H79  1.816770389061E-01 -3.772397985670E-01  2.687392341874E-01
H80 -1.816770389061E-01  3.772397985670E-01 -2.687392341874E-01
H81 -3.949325322331E-01 -3.499616796491E-01  5.722762758733E-03
H82  3.949325322331E-01  3.499616796491E-01 -5.722762758733E-03
H83  2.888695656168E-01  4.874034250171E-01  1.314254524543E-01
H84 -2.888695656168E-01 -4.874034250171E-01 -1.314254524543E-01


#===END

data_OPT_STEP_19

_symmetry_space_group_name_H-M 'P 1'
_cell_length_a      6.19256465
_cell_length_b      7.13981590
_cell_length_c     16.09719818
_cell_angle_alpha   96.005001
_cell_angle_beta   90.679689
_cell_angle_gamma   95.853483

loop_
_atom_site_label
_atom_site_fract_x
_atom_site_fract_y
_atom_site_fract_z
C1  2.570076824279E-02  2.430772908470E-01  3.302973313954E-01
C2 -2.570076824279E-02 -2.430772908470E-01 -3.302973313954E-01
C3  7.966714849324E-02  3.495000474302E-01  4.037542810843E-01
C4 -7.966714849324E-02 -3.495000474302E-01 -4.037542810843E-01
C5  2.928106043728E-01  4.435064497852E-01  4.182484778084E-01
C6 -2.928106043728E-01 -4.435064497852E-01 -4.182484778084E-01
C7  4.457244081154E-01  4.296103432059E-01  3.587489516546E-01
C8 -4.457244081154E-01 -4.296103432059E-01 -3.587489516546E-01
C9  3.966926323852E-01  3.190793006553E-01  2.805086466538E-01
C10 -3.966926323852E-01 -3.190793006553E-01 -2.805086466538E-01
C11  1.812955040621E-01  2.220803800134E-01  2.662499648449E-01
C12 -1.812955040621E-01 -2.220803800134E-01 -2.662499648449E-01
C13  1.311949137867E-01  1.105483210281E-01  1.919110175677E-01
C14 -1.311949137867E-01 -1.105483210281E-01 -1.919110175677E-01
C15  2.860860726517E-01  8.796479668034E-02  1.293332124122E-01
C16 -2.860860726517E-01 -8.796479668034E-02 -1.293332124122E-01
C17 -4.984868662723E-01  1.864965066748E-01  1.433589353074E-01
C18  4.984868662723E-01 -1.864965066748E-01 -1.433589353074E-01
C19 -4.502533033977E-01  3.004220850735E-01  2.193523338989E-01
C20  4.502533033977E-01 -3.004220850735E-01 -2.193523338989E-01
C21  2.376603735214E-01 -2.691788777740E-02  5.491397437203E-02
C22 -2.376603735214E-01  2.691788777740E-02 -5.491397437203E-02
C23  3.923292914394E-01 -4.963297191310E-02 -6.941047159937E-03
C24 -3.923292914394E-01  4.963297191310E-02  6.941047159937E-03
C25 -3.440870011101E-01  1.645340988125E-01  8.197619171545E-02
C26  3.440870011101E-01 -1.645340988125E-01 -8.197619171545E-02
C27 -4.579616611285E-01 -1.097908673998E-01  3.081455754695E-01
C28  4.579616611285E-01  1.097908673998E-01 -3.081455754695E-01
C29 -4.140989005630E-01 -6.766031916465E-02  3.912100341487E-01
C30  4.140989005630E-01  6.766031916465E-02 -3.912100341487E-01
C31 -2.197080151975E-01 -1.169093575334E-01  4.274270422685E-01
C32  2.197080151975E-01  1.169093575334E-01 -4.274270422685E-01
C33 -7.369585700942E-02 -2.051297165711E-01  3.792846330624E-01
C34  7.369585700942E-02  2.051297165711E-01 -3.792846330624E-01
C35 -1.129535378333E-01 -2.529603580467E-01  2.916927948430E-01
C36  1.129535378333E-01  2.529603580467E-01 -2.916927948430E-01
C37 -3.110522316408E-01 -2.046158079568E-01  2.552175810775E-01
C38  3.110522316408E-01  2.046158079568E-01 -2.552175810775E-01
C39 -3.526264608204E-01 -2.488807205672E-01  1.705712702154E-01
C40  3.526264608204E-01  2.488807205672E-01 -1.705712702154E-01
C41 -2.057158677043E-01 -3.404522792344E-01  1.185225426274E-01
C42  2.057158677043E-01  3.404522792344E-01 -1.185225426274E-01
C43 -6.596018723942E-03 -3.882883296845E-01  1.550761119161E-01
C44  6.596018723942E-03  3.882883296845E-01 -1.550761119161E-01
C45  3.321324334028E-02 -3.423148912851E-01  2.414717891557E-01
C46 -3.321324334028E-02  3.423148912851E-01 -2.414717891557E-01
C47 -2.464709172807E-01 -3.854394841545E-01  3.318555151057E-02
C48  2.464709172807E-01  3.854394841545E-01 -3.318555151057E-02
C49 -9.963259276267E-02 -4.760310625930E-01 -1.830188466017E-02
C50  9.963259276267E-02  4.760310625930E-01  1.830188466017E-02
C51  1.402204074317E-01 -4.779782214254E-01  1.040663012632E-01
C52 -1.402204074317E-01  4.779782214254E-01 -1.040663012632E-01
H53 -1.359850913487E-01  1.706090706049E-01  3.191987384408E-01
H54  1.359850913487E-01 -1.706090706049E-01 -3.191987384408E-01
H55 -4.033066202758E-02  3.634121860160E-01  4.518354948382E-01
H56  4.033066202758E-02 -3.634121860160E-01 -4.518354948382E-01
H57  3.340989044056E-01 -4.734885903639E-01  4.776089584332E-01
H58 -3.340989044056E-01  4.734885903639E-01 -4.776089584332E-01
H59 -3.924820644393E-01 -4.981480810180E-01  3.694803476482E-01
H60  3.924820644393E-01  4.981480810180E-01 -3.694803476482E-01
H61 -3.000525792774E-02  3.636545358888E-02  1.815544611587E-01
H62  3.000525792774E-02 -3.636545358888E-02 -1.815544611587E-01
H63 -2.883501490022E-01  3.726543812382E-01  2.302080235256E-01
H64  2.883501490022E-01 -3.726543812382E-01 -2.302080235256E-01
H65  7.614124069751E-02 -1.006211121000E-01  4.440584728011E-02
H66 -7.614124069751E-02  1.006211121000E-01 -4.440584728011E-02
H67 -1.820845086858E-01  2.372268069809E-01  9.277257443687E-02
H68  1.820845086858E-01 -2.372268069809E-01 -9.277257443687E-02
H69  3.945716205240E-01 -7.185828388906E-02  2.803743049705E-01
H70 -3.945716205240E-01  7.185828388906E-02 -2.803743049705E-01
H71  4.744458927045E-01  8.061912772338E-03  4.300364692193E-01
H72 -4.744458927045E-01 -8.061912772338E-03 -4.300364692193E-01
H73 -1.859294820364E-01 -8.130151917015E-02  4.938451632965E-01
H74  1.859294820364E-01  8.130151917015E-02 -4.938451632965E-01
H75  7.726562328449E-02 -2.393364354912E-01  4.059151380875E-01
H76 -7.726562328449E-02  2.393364354912E-01 -4.059151380875E-01
H77  4.986358089443E-01 -2.123196032689E-01  1.431365514675E-01
H78 -4.986358089443E-01  2.123196032689E-01 -1.431365514675E-01
H79  1.824606798993E-01 -3.779202124658E-01  2.689824751428E-01
H80 -1.824606798993E-01  3.779202124658E-01 -2.689824751428E-01
H81 -3.958854672829E-01 -3.500770246544E-01  5.778806814511E-03
H82  3.958854672829E-01  3.500770246544E-01 -5.778806814511E-03
H83  2.898060998535E-01  4.870733140482E-01  1.315214695171E-01
H84 -2.898060998535E-01 -4.870733140482E-01 -1.315214695171E-01


#===END

data_OPT_STEP_20

_symmetry_space_group_name_H-M 'P 1'
_cell_length_a      6.16544237
_cell_length_b      7.18268161
_cell_length_c     16.08916650
_cell_angle_alpha   96.151553
_cell_angle_beta   90.758265
_cell_angle_gamma   95.846185

loop_
_atom_site_label
_atom_site_fract_x
_atom_site_fract_y
_atom_site_fract_z
C1  2.585328640785E-02  2.437086501354E-01  3.309119564890E-01
C2 -2.585328640785E-02 -2.437086501354E-01 -3.309119564890E-01
C3  8.047435827995E-02  3.506310870272E-01  4.041889642974E-01
C4 -8.047435827995E-02 -3.506310870272E-01 -4.041889642974E-01
C5  2.943243831123E-01  4.449400438437E-01  4.182763290373E-01
C6 -2.943243831123E-01 -4.449400438437E-01 -4.182763290373E-01
C7  4.479310749946E-01  4.296411834750E-01  3.589409065236E-01
C8 -4.479310749946E-01 -4.296411834750E-01 -3.589409065236E-01
C9  3.981398616007E-01  3.189264273064E-01  2.807515773106E-01
C10 -3.981398616007E-01 -3.189264273064E-01 -2.807515773106E-01
C11  1.811788973409E-01  2.230074753147E-01  2.664693970732E-01
C12 -1.811788973409E-01 -2.230074753147E-01 -2.664693970732E-01
C13  1.303852440226E-01  1.113613318564E-01  1.921565888702E-01
C14 -1.303852440226E-01 -1.113613318564E-01 -1.921565888702E-01
C15  2.854090017102E-01  8.885617751058E-02  1.293301519577E-01
C16 -2.854090017102E-01 -8.885617751058E-02 -1.293301519577E-01
C17 -4.981958813285E-01  1.872678953482E-01  1.431987466782E-01
C18  4.981958813285E-01 -1.872678953482E-01 -1.431987466782E-01
C19 -4.488327254975E-01  3.003130358648E-01  2.194517186592E-01
C20  4.488327254975E-01 -3.003130358648E-01 -2.194517186592E-01
C21  2.364732213449E-01 -2.635845416360E-02  5.499221831174E-02
C22 -2.364732213449E-01  2.635845416360E-02 -5.499221831174E-02
C23  3.918631796333E-01 -4.969091922258E-02 -6.848481070794E-03
C24 -3.918631796333E-01  4.969091922258E-02  6.848481070794E-03
C25 -3.439852373781E-01  1.661724266635E-01  8.148961474378E-02
C26  3.439852373781E-01 -1.661724266635E-01 -8.148961474378E-02
C27 -4.595309705583E-01 -1.120970252335E-01  3.086966837239E-01
C28  4.595309705583E-01  1.120970252335E-01 -3.086966837239E-01
C29 -4.144158016081E-01 -6.851808345025E-02  3.917651028049E-01
C30  4.144158016081E-01  6.851808345025E-02 -3.917651028049E-01
C31 -2.192691912343E-01 -1.179847079381E-01  4.280607755764E-01
C32  2.192691912343E-01  1.179847079381E-01 -4.280607755764E-01
C33 -7.256729709002E-02 -2.058516664034E-01  3.798388495887E-01
C34  7.256729709002E-02  2.058516664034E-01 -3.798388495887E-01
C35 -1.119910043950E-01 -2.534429831514E-01  2.921417550959E-01
C36  1.119910043950E-01  2.534429831514E-01 -2.921417550959E-01
C37 -3.114814397817E-01 -2.058203937899E-01  2.556964896977E-01
C38  3.114814397817E-01  2.058203937899E-01 -2.556964896977E-01
C39 -3.529439688346E-01 -2.491965561619E-01  1.709304844347E-01
C40  3.529439688346E-01  2.491965561619E-01 -1.709304844347E-01
C41 -2.055483136726E-01 -3.403765892665E-01  1.187552998881E-01
C42  2.055483136726E-01  3.403765892665E-01 -1.187552998881E-01
C43 -6.446535718185E-03 -3.895562854186E-01  1.553833275316E-01
C44  6.446535718185E-03  3.895562854186E-01 -1.553833275316E-01
C45  3.406009900473E-02 -3.433676200178E-01  2.418718575708E-01
C46 -3.406009900473E-02  3.433676200178E-01 -2.418718575708E-01
C47 -2.463810860017E-01 -3.844109897789E-01  3.327965196232E-02
C48  2.463810860017E-01  3.844109897789E-01 -3.327965196232E-02
C49 -9.971311923723E-02 -4.754492275566E-01 -1.832070611185E-02
C50  9.971311923723E-02  4.754492275566E-01  1.832070611185E-02
C51  1.400273867297E-01 -4.800556722706E-01  1.042851422671E-01
C52 -1.400273867297E-01  4.800556722706E-01 -1.042851422671E-01
H53 -1.368330534961E-01  1.718565453246E-01  3.199281125358E-01
H54  1.368330534961E-01 -1.718565453246E-01 -3.199281125358E-01
H55 -3.914188815622E-02  3.641253021822E-01  4.525570608769E-01
H56  3.914188815622E-02 -3.641253021822E-01 -4.525570608769E-01
H57  3.358431596276E-01 -4.698962012671E-01  4.771170860381E-01
H58 -3.358431596276E-01  4.698962012671E-01 -4.771170860381E-01
H59 -3.898881913540E-01 -4.965350008198E-01  3.693437486773E-01
H60  3.898881913540E-01  4.965350008198E-01 -3.693437486773E-01
H61 -3.191628193586E-02  3.808498325513E-02  1.817610451933E-01
H62  3.191628193586E-02 -3.808498325513E-02 -1.817610451933E-01
H63 -2.867396399883E-01  3.743977730901E-01  2.298879454675E-01
H64  2.867396399883E-01 -3.743977730901E-01 -2.298879454675E-01
H65  7.405563785683E-02 -9.949698542095E-02  4.447085427455E-02
H66 -7.405563785683E-02  9.949698542095E-02 -4.447085427455E-02
H67 -1.829174809831E-01  2.417301181787E-01  9.147977701400E-02
H68  1.829174809831E-01 -2.417301181787E-01 -9.147977701400E-02
H69  3.918016521236E-01 -7.511984129292E-02  2.809528813736E-01
H70 -3.918016521236E-01  7.511984129292E-02 -2.809528813736E-01
H71  4.742294105327E-01  8.102865057373E-03  4.303696074458E-01
H72 -4.742294105327E-01 -8.102865057373E-03 -4.303696074458E-01
H73 -1.856653624633E-01 -8.337725048227E-02  4.945594647819E-01
H74  1.856653624633E-01  8.337725048227E-02 -4.945594647819E-01
H75  7.843695420140E-02 -2.408321968920E-01  4.065413766674E-01
H76 -7.843695420140E-02  2.408321968920E-01 -4.065413766674E-01
H77  4.972549159375E-01 -2.131926126293E-01  1.435572851332E-01
H78 -4.972549159375E-01  2.131926126293E-01 -1.435572851332E-01
H79  1.830773651156E-01 -3.801737210617E-01  2.694626748936E-01
H80 -1.830773651156E-01  3.801737210617E-01 -2.694626748936E-01
H81 -3.960123139602E-01 -3.482985701390E-01  5.892566018106E-03
H82  3.960123139602E-01  3.482985701390E-01 -5.892566018106E-03
H83  2.884170472053E-01  4.821952278011E-01  1.318633040705E-01
H84 -2.884170472053E-01 -4.821952278011E-01 -1.318633040705E-01


#===END

data_OPT_STEP_21

_symmetry_space_group_name_H-M 'P 1'
_cell_length_a      6.12113203
_cell_length_b      7.20599430
_cell_length_c     16.08442568
_cell_angle_alpha   96.249197
_cell_angle_beta   90.761315
_cell_angle_gamma   96.066099

loop_
_atom_site_label
_atom_site_fract_x
_atom_site_fract_y
_atom_site_fract_z
C1  2.436480502095E-02  2.413832373605E-01  3.314865752949E-01
C2 -2.436480502095E-02 -2.413832373605E-01 -3.314865752949E-01
C3  7.883251713183E-02  3.498388920788E-01  4.045249674560E-01
C4 -7.883251713183E-02 -3.498388920788E-01 -4.045249674560E-01
C5  2.938657800287E-01  4.458070723733E-01  4.184062122288E-01
C6 -2.938657800287E-01 -4.458070723733E-01 -4.184062122288E-01
C7  4.487357334036E-01  4.303623166392E-01  3.590890952779E-01
C8 -4.487357334036E-01 -4.303623166392E-01 -3.590890952779E-01
C9  3.988465930592E-01  3.182597532818E-01  2.810733351592E-01
C10 -3.988465930592E-01 -3.182597532818E-01 -2.810733351592E-01
C11  1.809087442782E-01  2.206049138400E-01  2.671183925711E-01
C12 -1.809087442782E-01 -2.206049138400E-01 -2.671183925711E-01
C13  1.297439035204E-01  1.083530018171E-01  1.929212186298E-01
C14 -1.297439035204E-01 -1.083530018171E-01 -1.929212186298E-01
C15  2.853002862111E-01  8.684703092158E-02  1.298690314811E-01
C16 -2.853002862111E-01 -8.684703092158E-02 -1.298690314811E-01
C17 -4.968935862440E-01  1.860261573147E-01  1.435595471073E-01
C18  4.968935862440E-01 -1.860261573147E-01 -1.435595471073E-01
C19 -4.479429466634E-01  3.011009194632E-01  2.193550104742E-01
C20  4.479429466634E-01 -3.011009194632E-01 -2.193550104742E-01
C21  2.352349272998E-01 -2.761054902439E-02  5.531120890510E-02
C22 -2.352349272998E-01  2.761054902439E-02 -5.531120890510E-02
C23  3.907881773232E-01 -4.938972418541E-02 -6.926581725436E-03
C24 -3.907881773232E-01  4.938972418541E-02  6.926581725436E-03
C25 -3.415231080239E-01  1.646822996277E-01  8.189283352894E-02
C26  3.415231080239E-01 -1.646822996277E-01 -8.189283352894E-02
C27 -4.590776819375E-01 -1.097548876954E-01  3.087385510543E-01
C28  4.590776819375E-01  1.097548876954E-01 -3.087385510543E-01
C29 -4.136309355351E-01 -6.654616812386E-02  3.918890924807E-01
C30  4.136309355351E-01  6.654616812386E-02 -3.918890924807E-01
C31 -2.179469032347E-01 -1.166953415122E-01  4.282299929509E-01
C32  2.179469032347E-01  1.166953415122E-01 -4.282299929509E-01
C33 -7.102317447390E-02 -2.049323832105E-01  3.800138855489E-01
C34  7.102317447390E-02  2.049323832105E-01 -3.800138855489E-01
C35 -1.105662413475E-01 -2.520318539499E-01  2.922141470370E-01
C36  1.105662413475E-01  2.520318539499E-01 -2.922141470370E-01
C37 -3.108890040417E-01 -2.040434837114E-01  2.557240277580E-01
C38  3.108890040417E-01  2.040434837114E-01 -2.557240277580E-01
C39 -3.532180300257E-01 -2.479495710938E-01  1.709334459356E-01
C40  3.532180300257E-01  2.479495710938E-01 -1.709334459356E-01
C41 -2.054884423198E-01 -3.394634842176E-01  1.187482088804E-01
C42  2.054884423198E-01  3.394634842176E-01 -1.187482088804E-01
C43 -5.255058323813E-03 -3.884941659666E-01  1.553953346748E-01
C44  5.255058323813E-03  3.884941659666E-01 -1.553953346748E-01
C45  3.531059395696E-02 -3.429368672284E-01  2.419714726540E-01
C46 -3.531059395696E-02  3.429368672284E-01 -2.419714726540E-01
C47 -2.477064441585E-01 -3.848160783345E-01  3.329506612184E-02
C48  2.477064441585E-01  3.848160783345E-01 -3.329506612184E-02
C49 -1.005483461116E-01 -4.759214350360E-01 -1.831422989758E-02
C50  1.005483461116E-01  4.759214350360E-01  1.831422989758E-02
C51  1.416486422129E-01 -4.790875031196E-01  1.042924023039E-01
C52 -1.416486422129E-01  4.790875031196E-01 -1.042924023039E-01
H53 -1.391000664281E-01  1.683576319802E-01  3.206707132035E-01
H54  1.391000664281E-01 -1.683576319802E-01 -3.206707132035E-01
H55 -4.122856815637E-02  3.626075027352E-01  4.530711228748E-01
H56  4.122856815637E-02 -3.626075027352E-01 -4.530711228748E-01
H57  3.357325582269E-01 -4.683257059216E-01  4.771807490138E-01
H58 -3.357325582269E-01  4.683257059216E-01 -4.771807490138E-01
H59 -3.873666628464E-01 -4.962077750392E-01  3.697001133110E-01
H60  3.873666628464E-01  4.962077750392E-01 -3.697001133110E-01
H61 -3.472107634779E-02  3.646499488087E-02  1.821256701786E-01
H62  3.472107634779E-02 -3.646499488087E-02 -1.821256701786E-01
H63 -2.855020775725E-01  3.770236672184E-01  2.293685372767E-01
H64  2.855020775725E-01 -3.770236672184E-01 -2.293685372767E-01
H65  7.230414243490E-02 -1.023064170328E-01  4.515568687353E-02
H66 -7.230414243490E-02  1.023064170328E-01 -4.515568687353E-02
H67 -1.786651360371E-01  2.394357314457E-01  9.210484041486E-02
H68  1.786651360371E-01 -2.394357314457E-01 -9.210484041486E-02
H69  3.921007213785E-01 -7.182106538247E-02  2.809172691944E-01
H70 -3.921007213785E-01  7.182106538247E-02 -2.809172691944E-01
H71  4.742118748810E-01  9.498604015444E-03  4.305720571493E-01
H72 -4.742118748810E-01 -9.498604015444E-03 -4.305720571493E-01
H73 -1.843656808198E-01 -8.271290583771E-02  4.948229237854E-01
H74  1.843656808198E-01  8.271290583771E-02 -4.948229237854E-01
H75  8.111619559455E-02 -2.394609108298E-01  4.067218512996E-01
H76 -8.111619559455E-02  2.394609108298E-01 -4.067218512996E-01
H77  4.955031349975E-01 -2.129035330060E-01  1.436015522412E-01
H78 -4.955031349975E-01  2.129035330060E-01 -1.436015522412E-01
H79  1.840988392922E-01 -3.812007096439E-01  2.696682619048E-01
H80 -1.840988392922E-01  3.812007096439E-01 -2.696682619048E-01
H81 -3.980585066920E-01 -3.485958001502E-01  5.878716675062E-03
H82  3.980585066920E-01  3.485958001502E-01 -5.878716675062E-03
H83  2.914985167812E-01  4.841277586916E-01  1.318303085776E-01
H84 -2.914985167812E-01 -4.841277586916E-01 -1.318303085776E-01


#===END

data_OPT_STEP_22

_symmetry_space_group_name_H-M 'P 1'
_cell_length_a      6.11799535
_cell_length_b      7.23277607
_cell_length_c     16.07210498
_cell_angle_alpha   96.309974
_cell_angle_beta   90.981199
_cell_angle_gamma   95.649081

loop_
_atom_site_label
_atom_site_fract_x
_atom_site_fract_y
_atom_site_fract_z
C1  2.577709248209E-02  2.446873799211E-01  3.313744303922E-01
C2 -2.577709248209E-02 -2.446873799211E-01 -3.313744303922E-01
C3  8.002135382011E-02  3.535607836984E-01  4.043702244829E-01
C4 -8.002135382011E-02 -3.535607836984E-01 -4.043702244829E-01
C5  2.945764746130E-01  4.492643360995E-01  4.182269372821E-01
C6 -2.945764746130E-01 -4.492643360995E-01 -4.182269372821E-01
C7  4.481286512616E-01  4.349033558204E-01  3.584237220736E-01
C8 -4.481286512616E-01 -4.349033558204E-01 -3.584237220736E-01
C9  3.994454502300E-01  3.202904598430E-01  2.809181859921E-01
C10 -3.994454502300E-01 -3.202904598430E-01 -2.809181859921E-01
C11  1.824777348737E-01  2.223774840039E-01  2.672459914485E-01
C12 -1.824777348737E-01 -2.223774840039E-01 -2.672459914485E-01
C13  1.311055873293E-01  1.104112491636E-01  1.930300019078E-01
C14 -1.311055873293E-01 -1.104112491636E-01 -1.930300019078E-01
C15  2.863126576816E-01  8.792968097001E-02  1.300059460758E-01
C16 -2.863126576816E-01 -8.792968097001E-02 -1.300059460758E-01
C17 -4.959437126139E-01  1.856501311490E-01  1.437317709814E-01
C18  4.959437126139E-01 -1.856501311490E-01 -1.437317709814E-01
C19 -4.473647404289E-01  3.016927189643E-01  2.192585898497E-01
C20  4.473647404289E-01 -3.016927189643E-01 -2.192585898497E-01
C21  2.363573928598E-01 -2.696322623774E-02  5.560074818659E-02
C22 -2.363573928598E-01  2.696322623774E-02 -5.560074818659E-02
C23  3.909967155374E-01 -4.890105957313E-02 -6.866773115605E-03
C24 -3.909967155374E-01  4.890105957313E-02  6.866773115605E-03
C25 -3.408416561272E-01  1.630497398555E-01  8.208708764087E-02
C26  3.408416561272E-01 -1.630497398555E-01 -8.208708764087E-02
C27 -4.594413700392E-01 -1.091910191546E-01  3.085935205639E-01
C28  4.594413700392E-01  1.091910191546E-01 -3.085935205639E-01
C29 -4.146431357308E-01 -6.742728371018E-02  3.919279077840E-01
C30  4.146431357308E-01  6.742728371018E-02 -3.919279077840E-01
C31 -2.186226070341E-01 -1.179243625327E-01  4.284484903377E-01
C32  2.186226070341E-01  1.179243625327E-01 -4.284484903377E-01
C33 -7.283729966610E-02 -2.081826485465E-01  3.804473783776E-01
C34  7.283729966610E-02  2.081826485465E-01 -3.804473783776E-01
C35 -1.129737818050E-01 -2.557495274995E-01  2.925620097200E-01
C36  1.129737818050E-01  2.557495274995E-01 -2.925620097200E-01
C37 -3.127255675760E-01 -2.060434085526E-01  2.557835849245E-01
C38  3.127255675760E-01  2.060434085526E-01 -2.557835849245E-01
C39 -3.558274796068E-01 -2.506074233775E-01  1.709313171493E-01
C40  3.558274796068E-01  2.506074233775E-01 -1.709313171493E-01
C41 -2.077254045961E-01 -3.420998688508E-01  1.188165153666E-01
C42  2.077254045961E-01  3.420998688508E-01 -1.188165153666E-01
C43 -6.439196759961E-03 -3.905043804405E-01  1.556155285716E-01
C44  6.439196759961E-03  3.905043804405E-01 -1.556155285716E-01
C45  3.305692466190E-02 -3.469059746875E-01  2.424133045210E-01
C46 -3.305692466190E-02  3.469059746875E-01 -2.424133045210E-01
C47 -2.491867185758E-01 -3.859854879306E-01  3.317042139475E-02
C48  2.491867185758E-01  3.859854879306E-01 -3.317042139475E-02
C49 -1.007205670736E-01 -4.757376042703E-01 -1.842668287113E-02
C50  1.007205670736E-01  4.757376042703E-01  1.842668287113E-02
C51  1.416076426854E-01 -4.799148425328E-01  1.045379577992E-01
C52 -1.416076426854E-01  4.799148425328E-01 -1.045379577992E-01
H53 -1.366128792842E-01  1.704513667792E-01  3.209283319099E-01
H54  1.366128792842E-01 -1.704513667792E-01 -3.209283319099E-01
H55 -3.969401246073E-02  3.665194434903E-01  4.529885533641E-01
H56  3.969401246073E-02 -3.665194434903E-01 -4.529885533641E-01
H57  3.367005622016E-01 -4.653416404549E-01  4.771486778427E-01
H58 -3.367005622016E-01  4.653416404549E-01 -4.771486778427E-01
H59 -3.888269516431E-01 -4.910077044594E-01  3.687524964575E-01
H60  3.888269516431E-01  4.910077044594E-01 -3.687524964575E-01
H61 -3.304542595602E-02  3.874692311309E-02  1.823383083857E-01
H62  3.304542595602E-02 -3.874692311309E-02 -1.823383083857E-01
H63 -2.845845316411E-01  3.761367463078E-01  2.294151139602E-01
H64  2.845845316411E-01 -3.761367463078E-01 -2.294151139602E-01
H65  7.467662045611E-02 -1.031183069735E-01  4.602500732405E-02
H66 -7.467662045611E-02  1.031183069735E-01 -4.602500732405E-02
H67 -1.774620936383E-01  2.360315385310E-01  9.251651793880E-02
H68  1.774620936383E-01 -2.360315385310E-01 -9.251651793880E-02
H69  3.931431698494E-01 -6.853836919913E-02  2.804979876913E-01
H70 -3.931431698494E-01  6.853836919913E-02 -2.804979876913E-01
H71  4.730439138415E-01  8.731080704843E-03  4.305613583591E-01
H72 -4.730439138415E-01 -8.731080704843E-03 -4.305613583591E-01
H73 -1.842419516790E-01 -8.312605969366E-02  4.950580460413E-01
H74  1.842419516790E-01  8.312605969366E-02 -4.950580460413E-01
H75  7.950749237154E-02 -2.431269800415E-01  4.072985949301E-01
H76 -7.950749237154E-02  2.431269800415E-01 -4.072985949301E-01
H77  4.932334121215E-01 -2.144237901061E-01  1.434154351544E-01
H78 -4.932334121215E-01  2.144237901061E-01 -1.434154351544E-01
H79  1.816336714864E-01 -3.861174742290E-01  2.702808186659E-01
H80 -1.816336714864E-01  3.861174742290E-01 -2.702808186659E-01
H81 -3.990532514726E-01 -3.484290345434E-01  5.547497431022E-03
H82  3.990532514726E-01  3.484290345434E-01 -5.547497431022E-03
H83  2.924729081702E-01  4.841325638991E-01  1.321455219328E-01
H84 -2.924729081702E-01 -4.841325638991E-01 -1.321455219328E-01


#===END

data_OPT_STEP_23

_symmetry_space_group_name_H-M 'P 1'
_cell_length_a      6.11991503
_cell_length_b      7.21178554
_cell_length_c     16.08283764
_cell_angle_alpha   96.272025
_cell_angle_beta   90.804586
_cell_angle_gamma   95.938722

loop_
_atom_site_label
_atom_site_fract_x
_atom_site_fract_y
_atom_site_fract_z
C1  2.473963080517E-02  2.420388579024E-01  3.315113943879E-01
C2 -2.473963080517E-02 -2.420388579024E-01 -3.315113943879E-01
C3  7.912271308728E-02  3.505556352527E-01  4.045641722795E-01
C4 -7.912271308728E-02 -3.505556352527E-01 -4.045641722795E-01
C5  2.940324743423E-01  4.464920947430E-01  4.184600127857E-01
C6 -2.940324743423E-01 -4.464920947430E-01 -4.184600127857E-01
C7  4.483668068636E-01  4.317505767895E-01  3.589077592425E-01
C8 -4.483668068636E-01 -4.317505767895E-01 -3.589077592425E-01
C9  3.989373077133E-01  3.187891733540E-01  2.810552416164E-01
C10 -3.989373077133E-01 -3.187891733540E-01 -2.810552416164E-01
C11  1.813272792911E-01  2.209718316691E-01  2.671941204918E-01
C12 -1.813272792911E-01 -2.209718316691E-01 -2.671941204918E-01
C13  1.300075504043E-01  1.090538981849E-01  1.929365969759E-01
C14 -1.300075504043E-01 -1.090538981849E-01 -1.929365969759E-01
C15  2.854894258541E-01  8.729045187681E-02  1.298880091595E-01
C16 -2.854894258541E-01 -8.729045187681E-02 -1.298880091595E-01
C17 -4.966989808866E-01  1.859930031819E-01  1.435934779614E-01
C18  4.966989808866E-01 -1.859930031819E-01 -1.435934779614E-01
C19 -4.477565142147E-01  3.011289351356E-01  2.193655859685E-01
C20  4.477565142147E-01 -3.011289351356E-01 -2.193655859685E-01
C21  2.355367515116E-01 -2.738111063012E-02  5.540064850046E-02
C22 -2.355367515116E-01  2.738111063012E-02 -5.540064850046E-02
C23  3.909307638913E-01 -4.936874385332E-02 -6.869521685854E-03
C24 -3.909307638913E-01  4.936874385332E-02  6.869521685854E-03
C25 -3.414840526986E-01  1.644584001346E-01  8.187651541411E-02
C26  3.414840526986E-01 -1.644584001346E-01 -8.187651541411E-02
C27 -4.592116772430E-01 -1.094843755508E-01  3.087181091048E-01
C28  4.592116772430E-01  1.094843755508E-01 -3.087181091048E-01
C29 -4.141259773916E-01 -6.693577216328E-02  3.919205636508E-01
C30  4.141259773916E-01  6.693577216328E-02 -3.919205636508E-01
C31 -2.180652698047E-01 -1.168094270178E-01  4.282602191181E-01
C32  2.180652698047E-01  1.168094270178E-01 -4.282602191181E-01
C33 -7.140731521004E-02 -2.055994145350E-01  3.800968828120E-01
C34  7.140731521004E-02  2.055994145350E-01 -3.800968828120E-01
C35 -1.112092286719E-01 -2.529942421152E-01  2.922909252508E-01
C36  1.112092286719E-01  2.529942421152E-01 -2.922909252508E-01
C37 -3.114081979124E-01 -2.045177986151E-01  2.557489493484E-01
C38  3.114081979124E-01  2.045177986151E-01 -2.557489493484E-01
C39 -3.539252409385E-01 -2.485426237499E-01  1.709503108300E-01
C40  3.539252409385E-01  2.485426237499E-01 -1.709503108300E-01
C41 -2.061166896586E-01 -3.401485607077E-01  1.187774210860E-01
C42  2.061166896586E-01  3.401485607077E-01 -1.187774210860E-01
C43 -5.441078648255E-03 -3.888575101285E-01  1.554269719697E-01
C44  5.441078648255E-03  3.888575101285E-01 -1.554269719697E-01
C45  3.492603063328E-02 -3.437220949000E-01  2.420451302370E-01
C46 -3.492603063328E-02  3.437220949000E-01 -2.420451302370E-01
C47 -2.479352080902E-01 -3.847874122820E-01  3.326668372325E-02
C48  2.479352080902E-01  3.847874122820E-01 -3.326668372325E-02
C49 -1.004850183015E-01 -4.756807208507E-01 -1.834199790054E-02
C50  1.004850183015E-01  4.756807208507E-01  1.834199790054E-02
C51  1.416243500844E-01 -4.793949164237E-01  1.043354897834E-01
C52 -1.416243500844E-01  4.793949164237E-01 -1.043354897834E-01
H53 -1.382768827791E-01  1.683653652506E-01  3.208567638481E-01
H54  1.382768827791E-01 -1.683653652506E-01 -3.208567638481E-01
H55 -4.086765051606E-02  3.633252564106E-01  4.531396808358E-01
H56  4.086765051606E-02 -3.633252564106E-01 -4.531396808358E-01
H57  3.358525399190E-01 -4.676683297311E-01  4.772637458915E-01
H58 -3.358525399190E-01  4.676683297311E-01 -4.772637458915E-01
H59 -3.880298229941E-01 -4.945347068449E-01  3.694194517886E-01
H60  3.880298229941E-01  4.945347068449E-01 -3.694194517886E-01
H61 -3.421656613922E-02  3.691631740676E-02  1.822469135276E-01
H62  3.421656613922E-02 -3.691631740676E-02 -1.822469135276E-01
H63 -2.849883598062E-01  3.762188794379E-01  2.295125898317E-01
H64  2.849883598062E-01 -3.762188794379E-01 -2.295125898317E-01
H65  7.294272938310E-02 -1.024858189100E-01  4.541553041352E-02
H66 -7.294272938310E-02  1.024858189100E-01 -4.541553041352E-02
H67 -1.783935820429E-01  2.385840804844E-01  9.217085642292E-02
H68  1.783935820429E-01 -2.385840804844E-01 -9.217085642292E-02
H69  3.923601683867E-01 -7.074009247066E-02  2.808329948780E-01
H70 -3.923601683867E-01  7.074009247066E-02 -2.808329948780E-01
H71  4.735924827994E-01  9.072598717288E-03  4.306025432471E-01
H72 -4.735924827994E-01 -9.072598717288E-03 -4.306025432471E-01
H73 -1.840558136043E-01 -8.229766531763E-02  4.948312001703E-01
H74  1.840558136043E-01  8.229766531763E-02 -4.948312001703E-01
H75  8.085799503478E-02 -2.401752267394E-01  4.068416878800E-01
H76 -8.085799503478E-02  2.401752267394E-01 -4.068416878800E-01
H77  4.951271243271E-01 -2.127750918731E-01  1.435604909863E-01
H78 -4.951271243271E-01  2.127750918731E-01 -1.435604909863E-01
H79  1.839770969838E-01 -3.818419963297E-01  2.697420935765E-01
H80 -1.839770969838E-01  3.818419963297E-01 -2.697420935765E-01
H81 -3.980041686272E-01 -3.479125557945E-01  5.796329939778E-03
H82  3.980041686272E-01  3.479125557945E-01 -5.796329939778E-03
H83  2.918166166293E-01  4.840714203869E-01  1.318694185512E-01
H84 -2.918166166293E-01 -4.840714203869E-01 -1.318694185512E-01


#===END

data_OPT_STEP_24

_symmetry_space_group_name_H-M 'P 1'
_cell_length_a      6.11537973
_cell_length_b      7.21294158
_cell_length_c     16.08451042
_cell_angle_alpha   96.280289
_cell_angle_beta   90.797100
_cell_angle_gamma   95.920117

loop_
_atom_site_label
_atom_site_fract_x
_atom_site_fract_y
_atom_site_fract_z
C1  2.455309234459E-02  2.414288164815E-01  3.315893207849E-01
C2 -2.455309234459E-02 -2.414288164815E-01 -3.315893207849E-01
C3  7.905964205468E-02  3.496839081791E-01  4.047201132603E-01
C4 -7.905964205468E-02 -3.496839081791E-01 -4.047201132603E-01
C5  2.939985688520E-01  4.458733759112E-01  4.186136985602E-01
C6 -2.939985688520E-01 -4.458733759112E-01 -4.186136985602E-01
C7  4.482749659041E-01  4.315242810505E-01  3.589717121681E-01
C8 -4.482749659041E-01 -4.315242810505E-01 -3.589717121681E-01
C9  3.986671937379E-01  3.189299757934E-01  2.810157660294E-01
C10 -3.986671937379E-01 -3.189299757934E-01 -2.810157660294E-01
C11  1.809529974212E-01  2.211088799214E-01  2.671391493339E-01
C12 -1.809529974212E-01 -2.211088799214E-01 -2.671391493339E-01
C13  1.296359088641E-01  1.092318902735E-01  1.928864744400E-01
C14 -1.296359088641E-01 -1.092318902735E-01 -1.928864744400E-01
C15  2.853744917438E-01  8.726799489330E-02  1.299001163410E-01
C16 -2.853744917438E-01 -8.726799489330E-02 -1.299001163410E-01
C17 -4.967722145486E-01  1.860640122367E-01  1.435705539230E-01
C18  4.967722145486E-01 -1.860640122367E-01 -1.435705539230E-01
C19 -4.474272680505E-01  3.005200106509E-01  2.195063243758E-01
C20  4.474272680505E-01 -3.005200106509E-01 -2.195063243758E-01
C21  2.354289469006E-01 -2.736938233741E-02  5.541757655573E-02
C22 -2.354289469006E-01  2.736938233741E-02 -5.541757655573E-02
C23  3.910942147134E-01 -4.968260517042E-02 -6.772486414083E-03
C24 -3.910942147134E-01  4.968260517042E-02  6.772486414083E-03
C25 -3.417972080411E-01  1.651136533165E-01  8.168984224038E-02
C26  3.417972080411E-01 -1.651136533165E-01 -8.168984224038E-02
C27 -4.593618670221E-01 -1.094209142594E-01  3.087305663377E-01
C28  4.593618670221E-01  1.094209142594E-01 -3.087305663377E-01
C29 -4.144235783809E-01 -6.723014511546E-02  3.919357741232E-01
C30  4.144235783809E-01  6.723014511546E-02 -3.919357741232E-01
C31 -2.180099471056E-01 -1.168344758256E-01  4.282338090710E-01
C32  2.180099471056E-01  1.168344758256E-01 -4.282338090710E-01
C33 -7.071657763459E-02 -2.048663670499E-01  3.800225895764E-01
C34  7.071657763459E-02  2.048663670499E-01 -3.800225895764E-01
C35 -1.107371888000E-01 -2.524808130641E-01  2.922307623348E-01
C36  1.107371888000E-01  2.524808130641E-01 -2.922307623348E-01
C37 -3.112086002606E-01 -2.041068444450E-01  2.557222619701E-01
C38  3.112086002606E-01  2.041068444450E-01 -2.557222619701E-01
C39 -3.537066741092E-01 -2.479202271471E-01  1.709252239729E-01
C40  3.537066741092E-01  2.479202271471E-01 -1.709252239729E-01
C41 -2.060571253722E-01 -3.399300615231E-01  1.187683348411E-01
C42  2.060571253722E-01  3.399300615231E-01 -1.187683348411E-01
C43 -4.997522647518E-03 -3.883885928295E-01  1.553754116429E-01
C44  4.997522647518E-03  3.883885928295E-01 -1.553754116429E-01
C45  3.591227529250E-02 -3.426359523625E-01  2.419480730199E-01
C46 -3.591227529250E-02  3.426359523625E-01 -2.419480730199E-01
C47 -2.478544258339E-01 -3.843670009871E-01  3.326100909496E-02
C48  2.478544258339E-01  3.843670009871E-01 -3.326100909496E-02
C49 -1.004632971121E-01 -4.755150302605E-01 -1.833884758003E-02
C50  1.004632971121E-01  4.755150302605E-01  1.833884758003E-02
C51  1.417900125380E-01 -4.794592573352E-01  1.043143638101E-01
C52 -1.417900125380E-01  4.794592573352E-01 -1.043143638101E-01
H53 -1.383075999054E-01  1.672382174908E-01  3.210219397425E-01
H54  1.383075999054E-01 -1.672382174908E-01 -3.210219397425E-01
H55 -4.106169907053E-02  3.624558049557E-01  4.532935510910E-01
H56  4.106169907053E-02 -3.624558049557E-01 -4.532935510910E-01
H57  3.355278433734E-01 -4.679736899912E-01  4.773657129706E-01
H58 -3.355278433734E-01  4.679736899912E-01 -4.773657129706E-01
H59 -3.882099459349E-01 -4.945805657980E-01  3.694347077204E-01
H60  3.882099459349E-01  4.945805657980E-01 -3.694347077204E-01
H61 -3.368318560218E-02  3.521159517335E-02  1.826502391209E-01
H62  3.368318560218E-02 -3.521159517335E-02 -1.826502391209E-01
H63 -2.840805892277E-01  3.746032545816E-01  2.298728861092E-01
H64  2.840805892277E-01 -3.746032545816E-01 -2.298728861092E-01
H65  7.237431688301E-02 -1.018316518189E-01  4.528069754010E-02
H66 -7.237431688301E-02  1.018316518189E-01 -4.528069754010E-02
H67 -1.784925172616E-01  2.390265522650E-01  9.201585498815E-02
H68  1.784925172616E-01 -2.390265522650E-01 -9.201585498815E-02
H69  3.917303587889E-01 -7.115872345300E-02  2.808882824851E-01
H70 -3.917303587889E-01  7.115872345300E-02 -2.808882824851E-01
H71  4.733975937176E-01  8.990101612241E-03  4.306267969362E-01
H72 -4.733975937176E-01 -8.990101612241E-03 -4.306267969362E-01
H73 -1.837190235541E-01 -8.199197405395E-02  4.947805140065E-01
H74  1.837190235541E-01  8.199197405396E-02 -4.947805140065E-01
H75  8.169392441125E-02 -2.394106850656E-01  4.067919403711E-01
H76 -8.169392441125E-02  2.394106850656E-01 -4.067919403711E-01
H77  4.960106603279E-01 -2.109576311508E-01  1.434749873681E-01
H78 -4.960106603279E-01  2.109576311508E-01 -1.434749873681E-01
H79  1.859194658208E-01 -3.796006708027E-01  2.695531929932E-01
H80 -1.859194658208E-01  3.796006708027E-01 -2.695531929932E-01
H81 -3.981644942183E-01 -3.476082517214E-01  5.812617224855E-03
H82  3.981644942183E-01  3.476082517214E-01 -5.812617224855E-03
H83  2.920359837000E-01  4.838602110428E-01  1.318394542359E-01
H84 -2.920359837000E-01 -4.838602110428E-01 -1.318394542359E-01


#===END

data_OPT_STEP_25

_symmetry_space_group_name_H-M 'P 1'
_cell_length_a      6.11586157
_cell_length_b      7.21646268
_cell_length_c     16.08243453
_cell_angle_alpha   96.288318
_cell_angle_beta   90.849654
_cell_angle_gamma   95.826895

loop_
_atom_site_label
_atom_site_fract_x
_atom_site_fract_y
_atom_site_fract_z
C1  2.510339902930E-02  2.424928242393E-01  3.315627478763E-01
C2 -2.510339902930E-02 -2.424928242393E-01 -3.315627478763E-01
C3  7.979672425566E-02  3.506473903098E-01  4.047027078578E-01
C4 -7.979672425566E-02 -3.506473903098E-01 -4.047027078578E-01
C5  2.945209862862E-01  4.468669176794E-01  4.185073074053E-01
C6 -2.945209862862E-01 -4.468669176794E-01 -4.185073074053E-01
C7  4.487563206176E-01  4.320627665926E-01  3.589070613859E-01
C8 -4.487563206176E-01 -4.320627665926E-01 -3.589070613859E-01
C9  3.989267817088E-01  3.196659645794E-01  2.809159252084E-01
C10 -3.989267817088E-01 -3.196659645794E-01 -2.809159252084E-01
C11  1.812640453101E-01  2.221099556399E-01  2.670606925269E-01
C12 -1.812640453101E-01 -2.221099556399E-01 -2.670606925269E-01
C13  1.300339539342E-01  1.098704720605E-01  1.929041538624E-01
C14 -1.300339539342E-01 -1.098704720605E-01 -1.929041538624E-01
C15  2.857889865405E-01  8.738180184716E-02  1.299770185005E-01
C16 -2.857889865405E-01 -8.738180184716E-02 -1.299770185005E-01
C17 -4.964505942471E-01  1.860072375106E-01  1.436089971087E-01
C18  4.964505942471E-01 -1.860072375106E-01 -1.436089971087E-01
C19 -4.471094191085E-01  3.006803877428E-01  2.194851434916E-01
C20  4.471094191085E-01 -3.006803877428E-01 -2.194851434916E-01
C21  2.357411400612E-01 -2.725972367208E-02  5.550180328069E-02
C22 -2.357411400612E-01  2.725972367208E-02 -5.550180328069E-02
C23  3.910897407058E-01 -4.949676713956E-02 -6.778213984185E-03
C24 -3.910897407058E-01  4.949676713956E-02  6.778213984185E-03
C25 -3.415774912118E-01  1.647447763622E-01  8.173948902212E-02
C26  3.415774912118E-01 -1.647447763622E-01 -8.173948902212E-02
C27 -4.593271356671E-01 -1.093631151972E-01  3.087377543614E-01
C28  4.593271356671E-01  1.093631151972E-01 -3.087377543614E-01
C29 -4.143073992236E-01 -6.723301408905E-02  3.919614265677E-01
C30  4.143073992236E-01  6.723301408905E-02 -3.919614265677E-01
C31 -2.183627473699E-01 -1.177418891678E-01  4.283366359429E-01
C32  2.183627473699E-01  1.177418891678E-01 -4.283366359429E-01
C33 -7.099769038940E-02 -2.057204672510E-01  3.801237418469E-01
C34  7.099769038940E-02  2.057204672510E-01 -3.801237418469E-01
C35 -1.110983886808E-01 -2.532750675646E-01  2.923092942295E-01
C36  1.110983886808E-01  2.532750675646E-01 -2.923092942295E-01
C37 -3.114748723590E-01 -2.045355083377E-01  2.557574631888E-01
C38  3.114748723590E-01  2.045355083377E-01 -2.557574631888E-01
C39 -3.541635413595E-01 -2.484571447440E-01  1.709540948020E-01
C40  3.541635413595E-01  2.484571447440E-01 -1.709540948020E-01
C41 -2.064517108715E-01 -3.404550458358E-01  1.187998807951E-01
C42  2.064517108715E-01  3.404550458358E-01 -1.187998807951E-01
C43 -5.319574148091E-03 -3.890401032101E-01  1.554395058376E-01
C44  5.319574148091E-03  3.890401032101E-01 -1.554395058376E-01
C45  3.540837772214E-02 -3.437052448507E-01  2.420600302955E-01
C46 -3.540837772214E-02  3.437052448507E-01 -2.420600302955E-01
C47 -2.484529436502E-01 -3.850393562155E-01  3.328384104831E-02
C48  2.484529436502E-01  3.850393562155E-01 -3.328384104831E-02
C49 -1.007343937281E-01 -4.757912211341E-01 -1.833388712036E-02
C50  1.007343937281E-01  4.757912211341E-01  1.833388712036E-02
C51  1.419426158306E-01 -4.794968741798E-01  1.043510537420E-01
C52 -1.419426158306E-01  4.794968741798E-01 -1.043510537420E-01
H53 -1.377203329520E-01  1.684276784019E-01  3.210192245644E-01
H54  1.377203329520E-01 -1.684276784019E-01 -3.210192245644E-01
H55 -4.021036004083E-02  3.636129264168E-01  4.532884471613E-01
H56  4.021036004083E-02 -3.636129264168E-01 -4.532884471613E-01
H57  3.360421520618E-01 -4.668674665026E-01  4.772324001921E-01
H58 -3.360421520618E-01  4.668674665026E-01 -4.772324001921E-01
H59 -3.879886800699E-01 -4.938646005208E-01  3.692697629796E-01
H60  3.879886800699E-01  4.938646005208E-01 -3.692697629796E-01
H61 -3.269027466275E-02  3.496027067800E-02  1.829391141323E-01
H62  3.269027466275E-02 -3.496027067800E-02 -1.829391141323E-01
H63 -2.839090436031E-01  3.747427317621E-01  2.297909801685E-01
H64  2.839090436031E-01 -3.747427317621E-01 -2.297909801685E-01
H65  7.269209281793E-02 -1.015323917324E-01  4.537636701422E-02
H66 -7.269209281793E-02  1.015323917324E-01 -4.537636701422E-02
H67 -1.783034697830E-01  2.384943343615E-01  9.204635941161E-02
H68  1.783034697830E-01 -2.384943343615E-01 -9.204635941161E-02
H69  3.918269876273E-01 -7.085476402024E-02  2.808681933517E-01
H70 -3.918269876273E-01  7.085476402024E-02 -2.808681933517E-01
H71  4.738432751522E-01  9.467552992547E-03  4.306217208819E-01
H72 -4.738432751522E-01 -9.467552992547E-03 -4.306217208819E-01
H73 -1.841553131718E-01 -8.314830895398E-02  4.949078878258E-01
H74  1.841553131718E-01  8.314830895398E-02 -4.949078878258E-01
H75  8.127465297358E-02 -2.406445132544E-01  4.069258589080E-01
H76 -8.127465297358E-02  2.406445132544E-01 -4.069258589080E-01
H77  4.957267903375E-01 -2.110981293349E-01  1.434662299264E-01
H78 -4.957267903375E-01  2.110981293349E-01 -1.434662299264E-01
H79  1.853376921241E-01 -3.809414702275E-01  2.696987286607E-01
H80 -1.853376921241E-01  3.809414702275E-01 -2.696987286607E-01
H81 -3.991794315106E-01 -3.487402055039E-01  5.846313292198E-03
H82  3.991794315106E-01  3.487402055039E-01 -5.846313292198E-03
H83  2.922964882965E-01  4.838367119613E-01  1.318918973636E-01
H84 -2.922964882965E-01 -4.838367119613E-01 -1.318918973636E-01


#===END

data_OPT_STEP_26

_symmetry_space_group_name_H-M 'P 1'
_cell_length_a      6.11151404
_cell_length_b      7.22305711
_cell_length_c     16.09028036
_cell_angle_alpha   96.364693
_cell_angle_beta   90.816494
_cell_angle_gamma   95.767740

loop_
_atom_site_label
_atom_site_fract_x
_atom_site_fract_y
_atom_site_fract_z
C1  2.540378770431E-02  2.425563973256E-01  3.318681608738E-01
C2 -2.540378770431E-02 -2.425563973256E-01 -3.318681608738E-01
C3  8.042883045910E-02  3.503302717656E-01  4.050488493836E-01
C4 -8.042883045910E-02 -3.503302717656E-01 -4.050488493836E-01
C5  2.948665442004E-01  4.470765929075E-01  4.185973678944E-01
C6 -2.948665442004E-01 -4.470765929075E-01 -4.185973678944E-01
C7  4.491400348016E-01  4.320544385918E-01  3.589763395640E-01
C8 -4.491400348016E-01 -4.320544385918E-01 -3.589763395640E-01
C9  3.993056250375E-01  3.195708309899E-01  2.810397829884E-01
C10 -3.993056250375E-01 -3.195708309899E-01 -2.810397829884E-01
C11  1.814707192080E-01  2.222696419595E-01  2.672406439806E-01
C12 -1.814707192080E-01 -2.222696419595E-01 -2.672406439806E-01
C13  1.298080401525E-01  1.106015870438E-01  1.929610274653E-01
C14 -1.298080401525E-01 -1.106015870438E-01 -1.929610274653E-01
C15  2.854541871843E-01  8.821259836556E-02  1.299058180505E-01
C16 -2.854541871843E-01 -8.821259836556E-02 -1.299058180505E-01
C17 -4.965035097062E-01  1.864390470129E-01  1.435405264505E-01
C18  4.965035097062E-01 -1.864390470129E-01 -1.435405264505E-01
C19 -4.468605947411E-01  3.007136721021E-01  2.195167497841E-01
C20  4.468605947411E-01 -3.007136721021E-01 -2.195167497841E-01
C21  2.355979924375E-01 -2.699141772817E-02  5.558242049842E-02
C22 -2.355979924375E-01  2.699141772817E-02 -5.558242049842E-02
C23  3.909202626835E-01 -4.926381857652E-02 -6.789933332034E-03
C24 -3.909202626835E-01  4.926381857652E-02  6.789933332034E-03
C25 -3.414536417395E-01  1.647756293448E-01  8.168598248194E-02
C26  3.414536417395E-01 -1.647756293448E-01 -8.168598248194E-02
C27 -4.596102690461E-01 -1.092824231264E-01  3.089305105775E-01
C28  4.596102690461E-01  1.092824231264E-01 -3.089305105775E-01
C29 -4.142676457094E-01 -6.674958529909E-02  3.920932709901E-01
C30  4.142676457094E-01  6.674958529909E-02 -3.920932709901E-01
C31 -2.179166740653E-01 -1.170077735534E-01  4.283537817762E-01
C32  2.179166740653E-01  1.170077735534E-01 -4.283537817762E-01
C33 -7.064074583375E-02 -2.053738329367E-01  3.801001371224E-01
C34  7.064074583375E-02  2.053738329367E-01 -3.801001371224E-01
C35 -1.110096146389E-01 -2.532588310389E-01  2.923355633893E-01
C36  1.110096146389E-01  2.532588310389E-01 -2.923355633893E-01
C37 -3.117350111282E-01 -2.046734164522E-01  2.559080638932E-01
C38  3.117350111282E-01  2.046734164522E-01 -2.559080638932E-01
C39 -3.544291309686E-01 -2.484662140987E-01  1.711410352376E-01
C40  3.544291309686E-01  2.484662140987E-01 -1.711410352376E-01
C41 -2.061091175003E-01 -3.397890094227E-01  1.188704073986E-01
C42  2.061091175003E-01  3.397890094227E-01 -1.188704073986E-01
C43 -5.282658398067E-03 -3.891977423956E-01  1.554383788786E-01
C44  5.282658398067E-03  3.891977423956E-01 -1.554383788786E-01
C45  3.553233398451E-02 -3.438652414753E-01  2.420343650699E-01
C46 -3.553233398451E-02  3.438652414753E-01 -2.420343650699E-01
C47 -2.478386454275E-01 -3.837534507832E-01  3.335512643826E-02
C48  2.478386454275E-01  3.837534507832E-01 -3.335512643826E-02
C49 -1.006208422180E-01 -4.754291623143E-01 -1.829069662240E-02
C50  1.006208422180E-01  4.754291623143E-01  1.829069662240E-02
C51  1.421686448943E-01 -4.795998164922E-01  1.042633650303E-01
C52 -1.421686448943E-01  4.795998164922E-01 -1.042633650303E-01
H53 -1.376627025785E-01  1.688237302280E-01  3.213334559350E-01
H54  1.376627025785E-01 -1.688237302280E-01 -3.213334559350E-01
H55 -3.951453226750E-02  3.632769847633E-01  4.537076124818E-01
H56  3.951453226750E-02 -3.632769847633E-01 -4.537076124818E-01
H57  3.361684321041E-01 -4.661415720368E-01  4.772088486707E-01
H58 -3.361684321041E-01  4.661415720368E-01 -4.772088486707E-01
H59 -3.878299220692E-01 -4.933515343730E-01  3.691582326173E-01
H60  3.878299220692E-01  4.933515343730E-01 -3.691582326173E-01
H61 -3.288367855916E-02  3.556283704318E-02  1.831179625436E-01
H62  3.288367855916E-02 -3.556283704318E-02 -1.831179625436E-01
H63 -2.833957371147E-01  3.744126675338E-01  2.298507402409E-01
H64  2.833957371147E-01 -3.744126675338E-01 -2.298507402409E-01
H65  7.256775203183E-02 -1.013936116958E-01  4.557834579931E-02
H66 -7.256775203183E-02  1.013936116958E-01 -4.557834579931E-02
H67 -1.783361302748E-01  2.388953625403E-01  9.181954647335E-02
H68  1.783361302748E-01 -2.388953625403E-01 -9.181954647335E-02
H69  3.913315134033E-01 -7.083419595889E-02  2.811253505750E-01
H70 -3.913315134033E-01  7.083419595889E-02 -2.811253505750E-01
H71  4.737639618312E-01  9.923043101973E-03  4.307883624982E-01
H72 -4.737639618312E-01 -9.923043101973E-03 -4.307883624982E-01
H73 -1.833563165002E-01 -8.200000269992E-02  4.948723699183E-01
H74  1.833563165002E-01  8.200000269992E-02 -4.948723699183E-01
H75  8.157440753516E-02 -2.406331332082E-01  4.068706467712E-01
H76 -8.157440753516E-02  2.406331332082E-01 -4.068706467712E-01
H77  4.951759066837E-01 -2.112509570384E-01  1.437377134924E-01
H78 -4.951759066837E-01  2.112509570384E-01 -1.437377134924E-01
H79  1.858904595110E-01 -3.807750152899E-01  2.695765087399E-01
H80 -1.858904595110E-01  3.807750152899E-01 -2.695765087399E-01
H81 -3.983869357642E-01 -3.468608336427E-01  5.965181868269E-03
H82  3.983869357642E-01  3.468608336427E-01 -5.965181868269E-03
H83  2.926772496472E-01  4.836297154605E-01  1.317225487399E-01
H84 -2.926772496472E-01 -4.836297154605E-01 -1.317225487399E-01


#===END

data_OPT_STEP_27

_symmetry_space_group_name_H-M 'P 1'
_cell_length_a      6.10572253
_cell_length_b      7.22699231
_cell_length_c     16.08316795
_cell_angle_alpha   96.362661
_cell_angle_beta   90.892991
_cell_angle_gamma   95.690536

loop_
_atom_site_label
_atom_site_fract_x
_atom_site_fract_y
_atom_site_fract_z
C1  2.605541504710E-02  2.428711341956E-01  3.320695811977E-01
C2 -2.605541504710E-02 -2.428711341956E-01 -3.320695811977E-01
C3  8.088484442485E-02  3.514476459769E-01  4.050463272459E-01
C4 -8.088484442485E-02 -3.514476459769E-01 -4.050463272459E-01
C5  2.953078107094E-01  4.483697929082E-01  4.184749988060E-01
C6 -2.953078107094E-01 -4.483697929082E-01 -4.184749988060E-01
C7  4.496157815033E-01  4.330448070563E-01  3.588728481107E-01
C8 -4.496157815033E-01 -4.330448070563E-01 -3.588728481107E-01
C9  3.998612666444E-01  3.200074719375E-01  2.810643471877E-01
C10 -3.998612666444E-01 -3.200074719375E-01 -2.810643471877E-01
C11  1.820637611028E-01  2.224571216739E-01  2.673936986380E-01
C12 -1.820637611028E-01 -2.224571216739E-01 -2.673936986380E-01
C13  1.302641280863E-01  1.105691052705E-01  1.931537649052E-01
C14 -1.302641280863E-01 -1.105691052705E-01 -1.931537649052E-01
C15  2.856083981314E-01  8.848870171248E-02  1.299459276719E-01
C16 -2.856083981314E-01 -8.848870171248E-02 -1.299459276719E-01
C17 -4.963241868073E-01  1.868671280078E-01  1.434905752794E-01
C18  4.963241868073E-01 -1.868671280078E-01 -1.434905752794E-01
C19 -4.464187787027E-01  3.010732124343E-01  2.195053420424E-01
C20  4.464187787027E-01 -3.010732124343E-01 -2.195053420424E-01
C21  2.355115290786E-01 -2.672625554779E-02  5.561246626261E-02
C22 -2.355115290786E-01  2.672625554779E-02 -5.561246626261E-02
C23  3.908824757392E-01 -4.930862515418E-02 -6.753826793198E-03
C24 -3.908824757392E-01  4.930862515418E-02  6.753826793198E-03
C25 -3.413557888318E-01  1.651132047315E-01  8.159413945933E-02
C26  3.413557888318E-01 -1.651132047315E-01 -8.159413945933E-02
C27 -4.600736243613E-01 -1.095125389969E-01  3.089580484958E-01
C28  4.600736243613E-01  1.095125389969E-01 -3.089580484958E-01
C29 -4.144273867460E-01 -6.671856406270E-02  3.921495710698E-01
C30  4.144273867460E-01  6.671856406270E-02 -3.921495710698E-01
C31 -2.176652634582E-01 -1.168929690100E-01  4.284764794751E-01
C32  2.176652634582E-01  1.168929690100E-01 -4.284764794751E-01
C33 -7.046403144003E-02 -2.056349916294E-01  3.802655862411E-01
C34  7.046403144003E-02  2.056349916294E-01 -3.802655862411E-01
C35 -1.105997919934E-01 -2.529955882749E-01  2.924185919395E-01
C36  1.105997919934E-01  2.529955882749E-01 -2.924185919395E-01
C37 -3.117889066023E-01 -2.045803519462E-01  2.559401061959E-01
C38  3.117889066023E-01  2.045803519462E-01 -2.559401061959E-01
C39 -3.543989844019E-01 -2.480245582305E-01  1.711134626319E-01
C40  3.543989844019E-01  2.480245582305E-01 -1.711134626319E-01
C41 -2.062269259272E-01 -3.397951607550E-01  1.188841033078E-01
C42  2.062269259272E-01  3.397951607550E-01 -1.188841033078E-01
C43 -4.943878536968E-03 -3.890438564752E-01  1.554968269385E-01
C44  4.943878536968E-03  3.890438564752E-01 -1.554968269385E-01
C45  3.625750347005E-02 -3.433796738890E-01  2.421226762788E-01
C46 -3.625750347005E-02  3.433796738890E-01 -2.421226762788E-01
C47 -2.483679516961E-01 -3.840638089305E-01  3.334800311259E-02
C48  2.483679516961E-01  3.840638089305E-01 -3.334800311259E-02
C49 -1.008006278385E-01 -4.754312835621E-01 -1.831449672231E-02
C50  1.008006278385E-01  4.754312835621E-01  1.831449672231E-02
C51  1.423608003566E-01 -4.798786432667E-01  1.043531698191E-01
C52 -1.423608003566E-01  4.798786432667E-01 -1.043531698191E-01
H53 -1.369152455509E-01  1.687803117405E-01  3.216676910351E-01
H54  1.369152455509E-01 -1.687803117405E-01 -3.216676910351E-01
H55 -3.891998632193E-02  3.643549935821E-01  4.537724083108E-01
H56  3.891998632193E-02 -3.643549935821E-01 -4.537724083108E-01
H57  3.366215318609E-01 -4.645970232517E-01  4.770501129201E-01
H58 -3.366215318609E-01  4.645970232517E-01 -4.770501129201E-01
H59 -3.871259051810E-01 -4.925902245304E-01  3.690822594236E-01
H60  3.871259051810E-01  4.925902245304E-01 -3.690822594236E-01
H61 -3.287442921750E-02  3.621190144477E-02  1.831984741648E-01
H62  3.287442921750E-02 -3.621190144477E-02 -1.831984741648E-01
H63 -2.826261482338E-01  3.743431962790E-01  2.299022084948E-01
H64  2.826261482338E-01 -3.743431962790E-01 -2.299022084948E-01
H65  7.239926240568E-02 -1.011287762536E-01  4.566435691699E-02
H66 -7.239926240568E-02  1.011287762536E-01 -4.566435691699E-02
H67 -1.783157792377E-01  2.395208956866E-01  9.160313654055E-02
H68  1.783157792377E-01 -2.395208956866E-01 -9.160313654055E-02
H69  3.906876972384E-01 -7.098347325625E-02  2.810968452045E-01
H70 -3.906876972384E-01  7.098347325625E-02 -2.810968452045E-01
H71  4.735214836866E-01  1.002193500373E-02  4.308099838227E-01
H72 -4.735214836866E-01 -1.002193500373E-02 -4.308099838227E-01
H73 -1.831390150710E-01 -8.211263295198E-02  4.950367457345E-01
H74  1.831390150710E-01  8.211263295198E-02 -4.950367457345E-01
H75  8.175726292401E-02 -2.412732313755E-01  4.071006110506E-01
H76 -8.175726292401E-02  2.412732313755E-01 -4.071006110506E-01
H77  4.949734201125E-01 -2.107813549785E-01  1.436689337143E-01
H78 -4.949734201125E-01  2.107813549785E-01 -1.436689337143E-01
H79  1.869068791796E-01 -3.802419327884E-01  2.696972829506E-01
H80 -1.869068791796E-01  3.802419327884E-01 -2.696972829506E-01
H81 -3.992165944190E-01 -3.472142400802E-01  5.930153712435E-03
H82  3.992165944190E-01  3.472142400802E-01 -5.930153712435E-03
H83  2.928993575134E-01  4.829911345522E-01  1.318621449956E-01
H84 -2.928993575134E-01 -4.829911345522E-01 -1.318621449956E-01


#===END

data_OPT_STEP_28

_symmetry_space_group_name_H-M 'P 1'
_cell_length_a      6.10810277
_cell_length_b      7.23740763
_cell_length_c     16.08856126
_cell_angle_alpha   96.439183
_cell_angle_beta   90.829774
_cell_angle_gamma   95.780548

loop_
_atom_site_label
_atom_site_fract_x
_atom_site_fract_y
_atom_site_fract_z
C1  2.647438531210E-02  2.426473515875E-01  3.322691922384E-01
C2 -2.647438531210E-02 -2.426473515875E-01 -3.322691922384E-01
C3  8.130815587493E-02  3.514055712019E-01  4.051896087844E-01
C4 -8.130815587493E-02 -3.514055712019E-01 -4.051896087844E-01
C5  2.957076505779E-01  4.484434120940E-01  4.185359374334E-01
C6 -2.957076505779E-01 -4.484434120940E-01 -4.185359374334E-01
C7  4.499167183833E-01  4.332080116578E-01  3.588799976443E-01
C8 -4.499167183833E-01 -4.332080116578E-01 -3.588799976443E-01
C9  4.002575864230E-01  3.198337212143E-01  2.811584715460E-01
C10 -4.002575864230E-01 -3.198337212143E-01 -2.811584715460E-01
C11  1.823952521950E-01  2.223046774111E-01  2.675302159099E-01
C12 -1.823952521950E-01 -2.223046774111E-01 -2.675302159099E-01
C13  1.305007939491E-01  1.104184594716E-01  1.932921789737E-01
C14 -1.305007939491E-01 -1.104184594716E-01 -1.932921789737E-01
C15  2.857985824382E-01  8.834197916307E-02  1.300402952512E-01
C16 -2.857985824382E-01 -8.834197916307E-02 -1.300402952512E-01
C17 -4.959996554865E-01  1.865749425637E-01  1.435804938636E-01
C18  4.959996554865E-01 -1.865749425637E-01 -1.435804938636E-01
C19 -4.459791591413E-01  3.007362840703E-01  2.196075662277E-01
C20  4.459791591413E-01 -3.007362840703E-01 -2.196075662277E-01
C21  2.354637457805E-01 -2.661192323507E-02  5.564365846537E-02
C22 -2.354637457805E-01  2.661192323507E-02 -5.564365846537E-02
C23  3.908267181836E-01 -4.926069413386E-02 -6.746692344535E-03
C24 -3.908267181836E-01  4.926069413386E-02  6.746692344535E-03
C25 -3.411145547084E-01  1.648874022308E-01  8.163133358383E-02
C26  3.411145547084E-01 -1.648874022308E-01 -8.163133358383E-02
C27 -4.595032945122E-01 -1.092436544181E-01  3.090368259885E-01
C28  4.595032945122E-01  1.092436544181E-01 -3.090368259885E-01
C29 -4.141000344530E-01 -6.657241344976E-02  3.922246688142E-01
C30  4.141000344530E-01  6.657241344976E-02 -3.922246688142E-01
C31 -2.177274305020E-01 -1.168797320896E-01  4.285215800205E-01
C32  2.177274305020E-01  1.168797320896E-01 -4.285215800205E-01
C33 -7.071357254789E-02 -2.056867241700E-01  3.802830602986E-01
C34  7.071357254789E-02  2.056867241700E-01 -3.802830602986E-01
C35 -1.107433138423E-01 -2.530866621298E-01  2.924484724292E-01
C36  1.107433138423E-01  2.530866621298E-01 -2.924484724292E-01
C37 -3.114987736501E-01 -2.044997466890E-01  2.560050147182E-01
C38  3.114987736501E-01  2.044997466890E-01 -2.560050147182E-01
C39 -3.539469358954E-01 -2.478905330302E-01  1.711892097945E-01
C40  3.539469358954E-01  2.478905330302E-01 -1.711892097945E-01
C41 -2.061309383117E-01 -3.399491897589E-01  1.189442157730E-01
C42  2.061309383117E-01  3.399491897589E-01 -1.189442157730E-01
C43 -5.140376291894E-03 -3.891769630986E-01  1.555064772168E-01
C44  5.140376291894E-03  3.891769630986E-01 -1.555064772168E-01
C45  3.586355984335E-02 -3.436094274889E-01  2.421301915027E-01
C46 -3.586355984335E-02  3.436094274889E-01 -2.421301915027E-01
C47 -2.481484255594E-01 -3.842038573850E-01  3.342021250202E-02
C48  2.481484255594E-01  3.842038573850E-01 -3.342021250202E-02
C49 -1.006220753671E-01 -4.753971104856E-01 -1.829008836507E-02
C50  1.006220753671E-01  4.753971104856E-01  1.829008836507E-02
C51  1.419031822971E-01 -4.801556041251E-01  1.043349558741E-01
C52 -1.419031822971E-01  4.801556041251E-01 -1.043349558741E-01
H53 -1.364721690460E-01  1.684312277098E-01  3.219344557961E-01
H54  1.364721690460E-01 -1.684312277098E-01 -3.219344557961E-01
H55 -3.836596181924E-02  3.641741815706E-01  4.539838229712E-01
H56  3.836596181924E-02 -3.641741815706E-01 -4.539838229712E-01
H57  3.369980186481E-01 -4.643482651753E-01  4.770731615842E-01
H58 -3.369980186481E-01  4.643482651753E-01 -4.770731615842E-01
H59 -3.869453418004E-01 -4.921075526285E-01  3.689916299374E-01
H60  3.869453418004E-01  4.921075526285E-01 -3.689916299374E-01
H61 -3.280122256158E-02  3.630509095957E-02  1.833134913114E-01
H62  3.280122256158E-02 -3.630509095957E-02 -1.833134913114E-01
H63 -2.821154660749E-01  3.739898678919E-01  2.299822689695E-01
H64  2.821154660749E-01 -3.739898678919E-01 -2.299822689695E-01
H65  7.217544996748E-02 -1.007559534319E-01  4.566535827260E-02
H66 -7.217544996748E-02  1.007559534319E-01 -4.566535827260E-02
H67 -1.780285624144E-01  2.392836284559E-01  9.161163493296E-02
H68  1.780285624144E-01 -2.392836284559E-01 -9.161163493296E-02
H69  3.916146445697E-01 -7.046787660846E-02  2.811848586166E-01
H70 -3.916146445697E-01  7.046787660846E-02 -2.811848586166E-01
H71  4.739807354593E-01  1.025478406464E-02  4.308828725429E-01
H72 -4.739807354593E-01 -1.025478406464E-02 -4.308828725429E-01
H73 -1.833928950561E-01 -8.225687375192E-02  4.950844220707E-01
H74  1.833928950561E-01  8.225687375192E-02 -4.950844220707E-01
H75  8.141455323221E-02 -2.412273981949E-01  4.070730387576E-01
H76 -8.141455323221E-02  2.412273981949E-01 -4.070730387576E-01
H77  4.956865718981E-01 -2.105197907037E-01  1.437676872267E-01
H78 -4.956865718981E-01  2.105197907037E-01 -1.437676872267E-01
H79  1.861464290635E-01 -3.807470710728E-01  2.696914220201E-01
H80 -1.861464290635E-01  3.807470710728E-01 -2.696914220201E-01
H81 -3.988173339611E-01 -3.473409215311E-01  6.035635007397E-03
H82  3.988173339611E-01  3.473409215311E-01 -6.035635007397E-03
H83  2.920403921746E-01  4.823808436121E-01  1.318309520386E-01
H84 -2.920403921746E-01 -4.823808436121E-01 -1.318309520386E-01


#===END

data_OPT_STEP_29

_symmetry_space_group_name_H-M 'P 1'
_cell_length_a      6.10284038
_cell_length_b      7.23983189
_cell_length_c     16.08087935
_cell_angle_alpha   96.442846
_cell_angle_beta   90.875282
_cell_angle_gamma   95.726225

loop_
_atom_site_label
_atom_site_fract_x
_atom_site_fract_y
_atom_site_fract_z
C1  2.598604542607E-02  2.431683333730E-01  3.322643559229E-01
C2 -2.598604542607E-02 -2.431683333730E-01 -3.322643559229E-01
C3  8.082279255149E-02  3.520469691543E-01  4.051819496085E-01
C4 -8.082279255149E-02 -3.520469691543E-01 -4.051819496085E-01
C5  2.958493014105E-01  4.482058995147E-01  4.187505259114E-01
C6 -2.958493014105E-01 -4.482058995147E-01 -4.187505259114E-01
C7  4.500295837029E-01  4.331132215689E-01  3.590515295497E-01
C8 -4.500295837029E-01 -4.331132215689E-01 -3.590515295497E-01
C9  4.001782001548E-01  3.199943984138E-01  2.812289952691E-01
C10 -4.001782001548E-01 -3.199943984138E-01 -2.812289952691E-01
C11  1.818613663291E-01  2.230335943170E-01  2.674458145055E-01
C12 -1.818613663291E-01 -2.230335943170E-01 -2.674458145055E-01
C13  1.301857674401E-01  1.106817322398E-01  1.932882654833E-01
C14 -1.301857674401E-01 -1.106817322398E-01 -1.932882654833E-01
C15  2.857219188674E-01  8.829738449109E-02  1.300890569689E-01
C16 -2.857219188674E-01 -8.829738449109E-02 -1.300890569689E-01
C17 -4.959847085153E-01  1.865569377142E-01  1.436380903351E-01
C18  4.959847085153E-01 -1.865569377142E-01 -1.436380903351E-01
C19 -4.463158213419E-01  3.013835570551E-01  2.195338392619E-01
C20  4.463158213419E-01 -3.013835570551E-01 -2.195338392619E-01
C21  2.353418782198E-01 -2.662880494498E-02  5.565778771049E-02
C22 -2.353418782198E-01  2.662880494498E-02 -5.565778771049E-02
C23  3.909985509178E-01 -4.967262243602E-02 -6.651484738752E-03
C24 -3.909985509178E-01  4.967262243602E-02  6.651484738752E-03
C25 -3.413696357318E-01  1.654651786707E-01  8.152099695219E-02
C26  3.413696357318E-01 -1.654651786707E-01 -8.152099695219E-02
C27 -4.591148153726E-01 -1.083898312304E-01  3.091003162436E-01
C28  4.591148153726E-01  1.083898312304E-01 -3.091003162436E-01
C29 -4.137938432725E-01 -6.592715525012E-02  3.923442137231E-01
C30  4.137938432725E-01  6.592715525012E-02 -3.923442137231E-01
C31 -2.173605029619E-01 -1.165662528959E-01  4.287132501876E-01
C32  2.173605029619E-01  1.165662528959E-01 -4.287132501876E-01
C33 -6.988686614859E-02 -2.049794060812E-01  3.804500613698E-01
C34  6.988686614859E-02  2.049794060812E-01 -3.804500613698E-01
C35 -1.100088490346E-01 -2.524134893175E-01  2.925621294606E-01
C36  1.100088490346E-01  2.524134893175E-01 -2.925621294606E-01
C37 -3.109623584727E-01 -2.036811591501E-01  2.560734877509E-01
C38  3.109623584727E-01  2.036811591501E-01 -2.560734877509E-01
C39 -3.540386189550E-01 -2.477841818544E-01  1.712666242823E-01
C40  3.540386189550E-01  2.477841818544E-01 -1.712666242823E-01
C41 -2.062718576120E-01 -3.400868013642E-01  1.190168838258E-01
C42  2.062718576120E-01  3.400868013642E-01 -1.190168838258E-01
C43 -4.384382973026E-03 -3.884416039292E-01  1.555441313965E-01
C44  4.384382973026E-03  3.884416039292E-01 -1.555441313965E-01
C45  3.673423346639E-02 -3.429228457044E-01  2.422213003907E-01
C46 -3.673423346639E-02  3.429228457044E-01 -2.422213003907E-01
C47 -2.481087382138E-01 -3.837902384301E-01  3.342391699950E-02
C48  2.481087382138E-01  3.837902384301E-01 -3.342391699950E-02
C49 -1.007848224187E-01 -4.754062558276E-01 -1.829599523240E-02
C50  1.007848224187E-01  4.754062558276E-01  1.829599523240E-02
C51  1.427728706124E-01 -4.794172654742E-01  1.043368325393E-01
C52 -1.427728706124E-01  4.794172654742E-01 -1.043368325393E-01
H53 -1.367458513654E-01  1.683499049031E-01  3.220751268114E-01
H54  1.367458513654E-01 -1.683499049031E-01 -3.220751268114E-01
H55 -3.865593531268E-02  3.645179024212E-01  4.540885174170E-01
H56  3.865593531268E-02 -3.645179024212E-01 -4.540885174170E-01
H57  3.368222991580E-01 -4.639918986841E-01  4.771875580872E-01
H58 -3.368222991580E-01  4.639918986841E-01 -4.771875580872E-01
H59 -3.864310898357E-01 -4.927409876531E-01  3.693100128377E-01
H60  3.864310898357E-01  4.927409876531E-01 -3.693100128377E-01
H61 -3.354887622188E-02  3.720644624341E-02  1.831597418161E-01
H62  3.354887622188E-02 -3.720644624341E-02 -1.831597418161E-01
H63 -2.829436617281E-01  3.756436949975E-01  2.296465687385E-01
H64  2.829436617281E-01 -3.756436949975E-01 -2.296465687385E-01
H65  7.199419948293E-02 -1.008325921030E-01  4.570792630879E-02
H66 -7.199419948293E-02  1.008325921030E-01 -4.570792630879E-02
H67 -1.781720941915E-01  2.398540706532E-01  9.148867939019E-02
H68  1.781720941915E-01 -2.398540706532E-01 -9.148867939019E-02
H69  3.916772346758E-01 -6.977755069288E-02  2.812256215371E-01
H70 -3.916772346758E-01  6.977755069288E-02 -2.812256215371E-01
H71  4.742018813487E-01  1.097536030204E-02  4.309759605632E-01
H72 -4.742018813487E-01 -1.097536030204E-02 -4.309759605632E-01
H73 -1.833727681177E-01 -8.257237064324E-02  4.953473758872E-01
H74  1.833727681177E-01  8.257237064324E-02 -4.953473758872E-01
H75  8.240548108091E-02 -2.406018951474E-01  4.072885999081E-01
H76 -8.240548108091E-02  2.406018951474E-01 -4.072885999081E-01
H77  4.949481191182E-01 -2.110200462558E-01  1.438705933575E-01
H78 -4.949481191182E-01  2.110200462558E-01 -1.438705933575E-01
H79  1.870182994993E-01 -3.804272158390E-01  2.698121330249E-01
H80 -1.870182994993E-01  3.804272158390E-01 -2.698121330249E-01
H81 -3.985476546933E-01 -3.461984605005E-01  5.993786200323E-03
H82  3.985476546933E-01  3.461984605005E-01 -5.993786200323E-03
H83  2.935383777573E-01  4.836247046853E-01  1.317955616105E-01
H84 -2.935383777573E-01 -4.836247046853E-01 -1.317955616105E-01


#===END

data_OPT_STEP_30

_symmetry_space_group_name_H-M 'P 1'
_cell_length_a      6.10711429
_cell_length_b      7.23727960
_cell_length_c     16.08693506
_cell_angle_alpha   96.438492
_cell_angle_beta   90.838555
_cell_angle_gamma   95.766882

loop_
_atom_site_label
_atom_site_fract_x
_atom_site_fract_y
_atom_site_fract_z
C1  2.638047452735E-02  2.427656936646E-01  3.322716357895E-01
C2 -2.638047452735E-02 -2.427656936646E-01 -3.322716357895E-01
C3  8.120473736534E-02  3.515830726448E-01  4.051842999859E-01
C4 -8.120473736534E-02 -3.515830726448E-01 -4.051842999859E-01
C5  2.958118894864E-01  4.483152551958E-01  4.186073283036E-01
C6 -2.958118894864E-01 -4.483152551958E-01 -4.186073283036E-01
C7  4.499996785336E-01  4.331244730008E-01  3.589372940174E-01
C8 -4.499996785336E-01 -4.331244730008E-01 -3.589372940174E-01
C9  4.002805866862E-01  3.198214898019E-01  2.811872385732E-01
C10 -4.002805866862E-01 -3.198214898019E-01 -2.811872385732E-01
C11  1.822764864189E-01  2.224872139120E-01  2.675081869356E-01
C12 -1.822764864189E-01 -2.224872139120E-01 -2.675081869356E-01
C13  1.304859800536E-01  1.103943249685E-01  1.933134488355E-01
C14 -1.304859800536E-01 -1.103943249685E-01 -1.933134488355E-01
C15  2.858440499875E-01  8.822983501334E-02  1.300769146176E-01
C16 -2.858440499875E-01 -8.822983501334E-02 -1.300769146176E-01
C17 -4.959309018888E-01  1.864541958976E-01  1.436208263628E-01
C18  4.959309018888E-01 -1.864541958976E-01 -1.436208263628E-01
C19 -4.460459309534E-01  3.008659781903E-01  2.195924205721E-01
C20  4.460459309534E-01 -3.008659781903E-01 -2.195924205721E-01
C21  2.354676393996E-01 -2.665981918184E-02  5.565945484356E-02
C22 -2.354676393996E-01  2.665981918184E-02 -5.565945484356E-02
C23  3.908884480240E-01 -4.939084896064E-02 -6.715183144142E-03
C24 -3.908884480240E-01  4.939084896064E-02  6.715183144142E-03
C25 -3.411645233819E-01  1.649938438252E-01  8.160965160042E-02
C26  3.411645233819E-01 -1.649938438252E-01 -8.160965160042E-02
C27 -4.594710772969E-01 -1.090937434537E-01  3.090536325712E-01
C28  4.594710772969E-01  1.090937434537E-01 -3.090536325712E-01
C29 -4.140936100510E-01 -6.646559185201E-02  3.922529475426E-01
C30  4.140936100510E-01  6.646559185201E-02 -3.922529475426E-01
C31 -2.176810239312E-01 -1.168165191611E-01  4.285633339268E-01
C32  2.176810239312E-01  1.168165191611E-01 -4.285633339268E-01
C33 -7.053589167925E-02 -2.055079706888E-01  3.803183511488E-01
C34  7.053589167925E-02  2.055079706888E-01 -3.803183511488E-01
C35 -1.105947210664E-01 -2.529425866752E-01  2.924734537427E-01
C36  1.105947210664E-01  2.529425866752E-01 -2.924734537427E-01
C37 -3.113946541421E-01 -2.043155718632E-01  2.560202348398E-01
C38  3.113946541421E-01  2.043155718632E-01 -2.560202348398E-01
C39 -3.540283061455E-01 -2.479385269509E-01  1.712119509278E-01
C40  3.540283061455E-01  2.479385269509E-01 -1.712119509278E-01
C41 -2.062126265460E-01 -3.400458777488E-01  1.189651481630E-01
C42  2.062126265460E-01  3.400458777488E-01 -1.189651481630E-01
C43 -4.959141331611E-03 -3.889901443652E-01  1.555125547164E-01
C44  4.959141331611E-03  3.889901443652E-01 -1.555125547164E-01
C45  3.604404326646E-02 -3.434662144797E-01  2.421496554236E-01
C46 -3.604404326646E-02  3.434662144797E-01 -2.421496554236E-01
C47 -2.481094609860E-01 -3.840626048480E-01  3.342032536173E-02
C48  2.481094609860E-01  3.840626048480E-01 -3.342032536173E-02
C49 -1.006512065288E-01 -4.753863308626E-01 -1.829131609159E-02
C50  1.006512065288E-01  4.753863308626E-01  1.829131609159E-02
C51  1.421173921619E-01 -4.799641478450E-01  1.043319432956E-01
C52 -1.421173921619E-01  4.799641478449E-01 -1.043319432956E-01
H53 -1.364760302901E-01  1.683333481966E-01  3.219909384768E-01
H54  1.364760302901E-01 -1.683333481966E-01 -3.219909384768E-01
H55 -3.838609636147E-02  3.642455334628E-01  4.540190026650E-01
H56  3.838609636147E-02 -3.642455334628E-01 -4.540190026650E-01
H57  3.369600440689E-01 -4.642264975312E-01  4.770967319670E-01
H58 -3.369600440689E-01  4.642264975312E-01 -4.770967319670E-01
H59 -3.867372613783E-01 -4.923782999688E-01  3.690963297329E-01
H60  3.867372613783E-01  4.923782999688E-01 -3.690963297329E-01
H61 -3.294355481996E-02  3.648026735391E-02  1.832901716520E-01
H62  3.294355481996E-02 -3.648026735391E-02 -1.832901716520E-01
H63 -2.823655962625E-01  3.744601691346E-01  2.298735662395E-01
H64  2.823655962625E-01 -3.744601691346E-01 -2.298735662395E-01
H65  7.217731522790E-02 -1.008369208919E-01  4.569719732008E-02
H66 -7.217731522790E-02  1.008369208919E-01 -4.569719732008E-02
H67 -1.780176942204E-01  2.393253983105E-01  9.159799189336E-02
H68  1.780176942204E-01 -2.393253983105E-01 -9.159799189336E-02
H69  3.915237615504E-01 -7.042241045792E-02  2.812012643732E-01
H70 -3.915237615504E-01  7.042241045792E-02 -2.812012643732E-01
H71  4.739690144593E-01  1.038644743483E-02  4.309027341702E-01
H72 -4.739690144593E-01 -1.038644743483E-02 -4.309027341702E-01
H73 -1.834338827787E-01 -8.234598107882E-02  4.951412914984E-01
H74  1.834338827787E-01  8.234598107882E-02 -4.951412914984E-01
H75  8.163054438740E-02 -2.410723401128E-01  4.071199568644E-01
H76 -8.163054438740E-02  2.410723401128E-01 -4.071199568644E-01
H77  4.954170820659E-01 -2.107612138831E-01  1.438006989376E-01
H78 -4.954170820659E-01  2.107612138831E-01 -1.438006989376E-01
H79  1.862875031865E-01 -3.807538794591E-01  2.697187559095E-01
H80 -1.862875031865E-01  3.807538794591E-01 -2.697187559095E-01
H81 -3.986709889192E-01 -3.469447385647E-01  6.022095891875E-03
H82  3.986709889192E-01  3.469447385647E-01 -6.022095891875E-03
H83  2.924190623335E-01  4.827066284799E-01  1.318154234288E-01
H84 -2.924190623335E-01 -4.827066284799E-01 -1.318154234288E-01


#===END

data_OPT_STEP_31

_symmetry_space_group_name_H-M 'P 1'
_cell_length_a      6.10519204
_cell_length_b      7.23800004
_cell_length_c     16.08638972
_cell_angle_alpha   96.443155
_cell_angle_beta   90.847665
_cell_angle_gamma   95.762778

loop_
_atom_site_label
_atom_site_fract_x
_atom_site_fract_y
_atom_site_fract_z
C1  2.622929541752E-02  2.428306568301E-01  3.322239730515E-01
C2 -2.622929541752E-02 -2.428306568301E-01 -3.322239730515E-01
C3  8.105940049839E-02  3.516019175581E-01  4.051703467945E-01
C4 -8.105940049839E-02 -3.516019175581E-01 -4.051703467945E-01
C5  2.957624135600E-01  4.482869231677E-01  4.186508454219E-01
C6 -2.957624135600E-01 -4.482869231677E-01 -4.186508454219E-01
C7  4.499861422155E-01  4.331425658049E-01  3.589739810437E-01
C8 -4.499861422155E-01 -4.331425658049E-01 -3.589739810437E-01
C9  4.002195284109E-01  3.198979222720E-01  2.811836036259E-01
C10 -4.002195284109E-01 -3.198979222720E-01 -2.811836036259E-01
C11  1.822167249437E-01  2.224870281130E-01  2.674972076354E-01
C12 -1.822167249437E-01 -2.224870281130E-01 -2.674972076354E-01
C13  1.304245542437E-01  1.104258588140E-01  1.932935584208E-01
C14 -1.304245542437E-01 -1.104258588140E-01 -1.932935584208E-01
C15  2.858536720177E-01  8.817699054227E-02  1.300875575710E-01
C16 -2.858536720177E-01 -8.817699054227E-02 -1.300875575710E-01
C17 -4.958996872072E-01  1.864001044858E-01  1.436357252477E-01
C18  4.958996872072E-01 -1.864001044858E-01 -1.436357252477E-01
C19 -4.460505802837E-01  3.008893787419E-01  2.195893800709E-01
C20  4.460505802837E-01 -3.008893787419E-01 -2.195893800709E-01
C21  2.354860075826E-01 -2.672021043901E-02  5.567307023644E-02
C22 -2.354860075826E-01  2.672021043901E-02 -5.567307023644E-02
C23  3.908300754946E-01 -4.930521365895E-02 -6.737495529469E-03
C24 -3.908300754946E-01  4.930521365895E-02  6.737495529469E-03
C25 -3.410920916723E-01  1.648928953112E-01  8.163289046244E-02
C26  3.410920916723E-01 -1.648928953112E-01 -8.163289046244E-02
C27 -4.594364097520E-01 -1.089292516489E-01  3.090404945869E-01
C28  4.594364097520E-01  1.089292516489E-01 -3.090404945869E-01
C29 -4.141332736158E-01 -6.643858807708E-02  3.922533537066E-01
C30  4.141332736158E-01  6.643858807708E-02 -3.922533537066E-01
C31 -2.176297321025E-01 -1.167297965989E-01  4.285691856968E-01
C32  2.176297321025E-01  1.167297965989E-01 -4.285691856968E-01
C33 -7.035952696193E-02 -2.052795291254E-01  3.803224707256E-01
C34  7.035952696193E-02  2.052795291254E-01 -3.803224707256E-01
C35 -1.104294449860E-01 -2.527163052479E-01  2.924680781494E-01
C36  1.104294449860E-01  2.527163052479E-01 -2.924680781494E-01
C37 -3.113236782087E-01 -2.041409885151E-01  2.560061324260E-01
C38  3.113236782087E-01  2.041409885151E-01 -2.560061324260E-01
C39 -3.540325897624E-01 -2.478479744768E-01  1.711945584320E-01
C40  3.540325897624E-01  2.478479744768E-01 -1.711945584320E-01
C41 -2.061926440735E-01 -3.399667709816E-01  1.189524732539E-01
C42  2.061926440735E-01  3.399667709816E-01 -1.189524732539E-01
C43 -4.886689895258E-03 -3.889010133334E-01  1.555113200057E-01
C44  4.886689895258E-03  3.889010133334E-01 -1.555113200057E-01
C45  3.622204568110E-02 -3.432562480228E-01  2.421445241046E-01
C46 -3.622204568110E-02  3.432562480228E-01 -2.421445241046E-01
C47 -2.482681398589E-01 -3.842216279618E-01  3.341697259165E-02
C48  2.482681398589E-01  3.842216279618E-01 -3.341697259165E-02
C49 -1.007368428464E-01 -4.754749268979E-01 -1.829344284769E-02
C50  1.007368428464E-01  4.754749268979E-01  1.829344284769E-02
C51  1.422368500620E-01 -4.798420638043E-01  1.043337937380E-01
C52 -1.422368500620E-01  4.798420638043E-01 -1.043337937380E-01
H53 -1.366465348679E-01  1.683804981700E-01  3.219271457429E-01
H54  1.366465348679E-01 -1.683804981700E-01 -3.219271457429E-01
H55 -3.850757659200E-02  3.641812735863E-01  4.540227007427E-01
H56  3.850757659200E-02 -3.641812735863E-01 -4.540227007427E-01
H57  3.367897559530E-01 -4.642145335382E-01  4.771425829339E-01
H58 -3.367897559530E-01  4.642145335382E-01 -4.771425829339E-01
H59 -3.866562727605E-01 -4.925632303329E-01  3.691796047064E-01
H60  3.866562727605E-01  4.925632303329E-01 -3.691796047064E-01
H61 -3.300429627127E-02  3.644772957469E-02  1.832786972872E-01
H62  3.300429627127E-02 -3.644772957469E-02 -1.832786972872E-01
H63 -2.824896029291E-01  3.746469218686E-01  2.298119254256E-01
H64  2.824896029291E-01 -3.746469218686E-01 -2.298119254256E-01
H65  7.224014682383E-02 -1.010366565336E-01  4.574880715155E-02
H66 -7.224014682383E-02  1.010366565336E-01 -4.574880715155E-02
H67 -1.777629786938E-01  2.389567643019E-01  9.168094782131E-02
H68  1.777629786938E-01 -2.389567643019E-01 -9.168094782131E-02
H69  3.914591183253E-01 -7.034149067411E-02  2.811885469376E-01
H70 -3.914591183253E-01  7.034149067411E-02 -2.811885469376E-01
H71  4.738983369052E-01  1.039093664746E-02  4.309072236323E-01
H72 -4.738983369052E-01 -1.039093664746E-02 -4.309072236323E-01
H73 -1.833161836919E-01 -8.216598312396E-02  4.951481804318E-01
H74  1.833161836919E-01  8.216598312396E-02 -4.951481804318E-01
H75  8.188355907090E-02 -2.407897806933E-01  4.071330607566E-01
H76 -8.188355907090E-02  2.407897806933E-01 -4.071330607566E-01
H77  4.953570376519E-01 -2.106999718553E-01  1.437779405503E-01
H78 -4.953570376519E-01  2.106999718553E-01 -1.437779405503E-01
H79  1.864896281598E-01 -3.805779625955E-01  2.697161118728E-01
H80 -1.864896281598E-01  3.805779625955E-01 -2.697161118728E-01
H81 -3.989736456173E-01 -3.472575555087E-01  6.022293983214E-03
H82  3.989736456173E-01  3.472575555087E-01 -6.022293983214E-03
H83  2.927262775549E-01  4.830351174901E-01  1.318072196845E-01
H84 -2.927262775549E-01 -4.830351174901E-01 -1.318072196845E-01


#===END

data_OPT_STEP_32

_symmetry_space_group_name_H-M 'P 1'
_cell_length_a      6.10221386
_cell_length_b      7.23937252
_cell_length_c     16.08495751
_cell_angle_alpha   96.467944
_cell_angle_beta   90.879998
_cell_angle_gamma   95.744171

loop_
_atom_site_label
_atom_site_fract_x
_atom_site_fract_y
_atom_site_fract_z
C1  2.614986417933E-02  2.428967736120E-01  3.322083707375E-01
C2 -2.614986417933E-02 -2.428967736120E-01 -3.322083707375E-01
C3  8.098067824413E-02  3.516858201371E-01  4.051917422797E-01
C4 -8.098067824413E-02 -3.516858201371E-01 -4.051917422797E-01
C5  2.956259805881E-01  4.486290317684E-01  4.186824305154E-01
C6 -2.956259805881E-01 -4.486290317684E-01 -4.186824305154E-01
C7  4.499118984137E-01  4.334887032951E-01  3.590160879931E-01
C8 -4.499118984137E-01 -4.334887032951E-01 -3.590160879931E-01
C9  4.001411632236E-01  3.201815079474E-01  2.811936051441E-01
C10 -4.001411632236E-01 -3.201815079474E-01 -2.811936051441E-01
C11  1.821422929318E-01  2.226433338808E-01  2.674837195496E-01
C12 -1.821422929318E-01 -2.226433338808E-01 -2.674837195496E-01
C13  1.303503229357E-01  1.105420240335E-01  1.932628022646E-01
C14 -1.303503229357E-01 -1.105420240335E-01 -1.932628022646E-01
C15  2.857430450693E-01  8.839311478640E-02  1.300418726533E-01
C16 -2.857430450693E-01 -8.839311478640E-02 -1.300418726533E-01
C17 -4.960100291433E-01  1.867116666289E-01  1.436040960778E-01
C18  4.960100291433E-01 -1.867116666289E-01 -1.436040960778E-01
C19 -4.461420899779E-01  3.012402284866E-01  2.195779114934E-01
C20  4.461420899779E-01 -3.012402284866E-01 -2.195779114934E-01
C21  2.353544139899E-01 -2.652583502328E-02  5.560555282986E-02
C22 -2.353544139899E-01  2.652583502328E-02 -5.560555282986E-02
C23  3.908159425207E-01 -4.932414374137E-02 -6.749070428880E-03
C24 -3.908159425207E-01  4.932414374137E-02  6.749070428880E-03
C25 -3.411263799312E-01  1.650795689822E-01  8.162914720504E-02
C26  3.411263799312E-01 -1.650795689822E-01 -8.162914720504E-02
C27 -4.591969263149E-01 -1.083950816060E-01  3.090370328570E-01
C28  4.591969263149E-01  1.083950816060E-01 -3.090370328570E-01
C29 -4.138544161128E-01 -6.593726090138E-02  3.922724249265E-01
C30  4.138544161128E-01  6.593726090138E-02 -3.922724249265E-01
C31 -2.174492470071E-01 -1.165330974201E-01  4.286260696271E-01
C32  2.174492470071E-01  1.165330974201E-01 -4.286260696271E-01
C33 -7.006635389363E-02 -2.049922508024E-01  3.803758648764E-01
C34  7.006635389363E-02  2.049922508024E-01 -3.803758648764E-01
C35 -1.101752977657E-01 -2.524194528425E-01  2.924977128165E-01
C36  1.101752977657E-01  2.524194528425E-01 -2.924977128165E-01
C37 -3.111482528853E-01 -2.037797122467E-01  2.560096048694E-01
C38  3.111482528853E-01  2.037797122467E-01 -2.560096048694E-01
C39 -3.539836865555E-01 -2.475916105565E-01  1.711836389528E-01
C40  3.539836865555E-01  2.475916105565E-01 -1.711836389528E-01
C41 -2.061044406125E-01 -3.397419419599E-01  1.189436566613E-01
C42  2.061044406125E-01  3.397419419599E-01 -1.189436566613E-01
C43 -4.572193588282E-03 -3.885157998565E-01  1.555151145160E-01
C44  4.572193588282E-03  3.885157998565E-01 -1.555151145160E-01
C45  3.651242182469E-02 -3.429832797125E-01  2.421734885759E-01
C46 -3.651242182469E-02  3.429832797125E-01 -2.421734885759E-01
C47 -2.483647607585E-01 -3.841910537029E-01  3.340091517828E-02
C48  2.483647607585E-01  3.841910537029E-01 -3.340091517828E-02
C49 -1.009003365408E-01 -4.756252500008E-01 -1.829719416607E-02
C50  1.009003365408E-01  4.756252500008E-01  1.829719416607E-02
C51  1.426762765859E-01 -4.793578258208E-01  1.043332367174E-01
C52 -1.426762765859E-01  4.793578258208E-01 -1.043332367174E-01
H53 -1.367409788666E-01  1.683843888051E-01  3.218893484505E-01
H54  1.367409788666E-01 -1.683843888051E-01 -3.218893484505E-01
H55 -3.856791583980E-02  3.641851178031E-01  4.540569487405E-01
H56  3.856791583980E-02 -3.641851178031E-01 -4.540569487405E-01
H57  3.366000472365E-01 -4.639234463993E-01  4.772186539721E-01
H58 -3.366000472365E-01  4.639234463993E-01 -4.772186539721E-01
H59 -3.867019183211E-01 -4.922464886858E-01  3.692485719736E-01
H60  3.867019183211E-01  4.922464886858E-01 -3.692485719736E-01
H61 -3.302067647734E-02  3.635768840618E-02  1.832746095464E-01
H62  3.302067647734E-02 -3.635768840618E-02 -1.832746095464E-01
H63 -2.825275271950E-01  3.749222334131E-01  2.298250090193E-01
H64  2.825275271950E-01 -3.749222334131E-01 -2.298250090193E-01
H65  7.202488713043E-02 -1.007768502906E-01  4.564926996694E-02
H66 -7.202488713043E-02  1.007768502906E-01 -4.564926996694E-02
H67 -1.777368392896E-01  2.391296109988E-01  9.169098286372E-02
H68  1.777368392896E-01 -2.391296109988E-01 -9.169098286372E-02
H69  3.917004434815E-01 -6.967650738255E-02  2.811644340542E-01
H70 -3.917004434815E-01  6.967650738255E-02 -2.811644340542E-01
H71  4.741283167185E-01  1.086580568997E-02  4.309357277786E-01
H72 -4.741283167185E-01 -1.086580568997E-02 -4.309357277786E-01
H73 -1.832393890535E-01 -8.216608036467E-02  4.952358068294E-01
H74  1.832393890535E-01  8.216608036467E-02 -4.952358068294E-01
H75  8.227567167374E-02 -2.404800514302E-01  4.072078744117E-01
H76 -8.227567167374E-02  2.404800514302E-01 -4.072078744117E-01
H77  4.953190165143E-01 -2.104492086334E-01  1.437536472482E-01
H78 -4.953190165143E-01  2.104492086334E-01 -1.437536472482E-01
H79  1.868844386100E-01 -3.802906896163E-01  2.697530883459E-01
H80 -1.868844386100E-01  3.802906896163E-01 -2.697530883459E-01
H81 -3.991839545047E-01 -3.472642367408E-01  5.995952383983E-03
H82  3.991839545047E-01  3.472642367408E-01 -5.995952383983E-03
H83  2.934553922524E-01  4.838050311211E-01  1.317987216125E-01
H84 -2.934553922524E-01 -4.838050311211E-01 -1.317987216125E-01


#===END

data_OPT_STEP_33

_symmetry_space_group_name_H-M 'P 1'
_cell_length_a      6.10231999
_cell_length_b      7.23633270
_cell_length_c     16.08183576
_cell_angle_alpha   96.472967
_cell_angle_beta   90.893526
_cell_angle_gamma   95.734338

loop_
_atom_site_label
_atom_site_fract_x
_atom_site_fract_y
_atom_site_fract_z
C1  2.655916887722E-02  2.431697634090E-01  3.322895174199E-01
C2 -2.655916887722E-02 -2.431697634090E-01 -3.322895174199E-01
C3  8.144352329902E-02  3.520167036915E-01  4.052957385541E-01
C4 -8.144352329902E-02 -3.520167036915E-01 -4.052957385541E-01
C5  2.959403073877E-01  4.493137178173E-01  4.187439928347E-01
C6 -2.959403073877E-01 -4.493137178173E-01 -4.187439928347E-01
C7  4.502863126869E-01  4.339833129326E-01  3.590988759549E-01
C8 -4.502863126869E-01 -4.339833129326E-01 -3.590988759549E-01
C9  4.004994840702E-01  3.204813409857E-01  2.812710631504E-01
C10 -4.004994840702E-01 -3.204813409857E-01 -2.812710631504E-01
C11  1.824754275286E-01  2.229439470369E-01  2.675466359542E-01
C12 -1.824754275286E-01 -2.229439470369E-01 -2.675466359542E-01
C13  1.306876122078E-01  1.106526530800E-01  1.933493115882E-01
C14 -1.306876122078E-01 -1.106526530800E-01 -1.933493115882E-01
C15  2.861096314952E-01  8.823401961871E-02  1.301607840183E-01
C16 -2.861096314952E-01 -8.823401961871E-02 -1.301607840183E-01
C17 -4.956559984924E-01  1.865900470652E-01  1.437057462777E-01
C18  4.956559984924E-01 -1.865900470652E-01 -1.437057462777E-01
C19 -4.458741282518E-01  3.015079980002E-01  2.196138833218E-01
C20  4.458741282518E-01 -3.015079980002E-01 -2.196138833218E-01
C21  2.356520169601E-01 -2.680799958270E-02  5.572912232498E-02
C22 -2.356520169601E-01  2.680799958270E-02 -5.572912232498E-02
C23  3.908316046902E-01 -4.936150663447E-02 -6.734377791750E-03
C24 -3.908316046902E-01  4.936150663447E-02  6.734377791750E-03
C25 -3.408223943653E-01  1.648075061281E-01  8.171905417433E-02
C26  3.408223943653E-01 -1.648075061281E-01 -8.171905417433E-02
C27 -4.593984237279E-01 -1.083623372589E-01  3.090553340527E-01
C28  4.593984237279E-01  1.083623372589E-01 -3.090553340527E-01
C29 -4.138823926730E-01 -6.564292432357E-02  3.922988537855E-01
C30  4.138823926730E-01  6.564292432357E-02 -3.922988537855E-01
C31 -2.173390639987E-01 -1.160782551382E-01  4.286622380229E-01
C32  2.173390639987E-01  1.160782551382E-01 -4.286622380229E-01
C33 -6.993892190577E-02 -2.045526710150E-01  3.804174662376E-01
C34  6.993892190577E-02  2.045526710150E-01 -3.804174662376E-01
C35 -1.100706771400E-01 -2.520610016661E-01  2.925191389259E-01
C36  1.100706771400E-01  2.520610016661E-01 -2.925191389259E-01
C37 -3.111960153526E-01 -2.035880751466E-01  2.560139398017E-01
C38  3.111960153526E-01  2.035880751466E-01 -2.560139398017E-01
C39 -3.540471301361E-01 -2.474573625518E-01  1.711679839632E-01
C40  3.540471301361E-01  2.474573625518E-01 -1.711679839632E-01
C41 -2.060863970011E-01 -3.395711990385E-01  1.189294783475E-01
C42  2.060863970011E-01  3.395711990385E-01 -1.189294783475E-01
C43 -4.518696374988E-03 -3.883212956966E-01  1.555304711001E-01
C44  4.518696374988E-03  3.883212956966E-01 -1.555304711001E-01
C45  3.661416356969E-02 -3.426805614639E-01  2.422020506293E-01
C46 -3.661416356969E-02  3.426805614639E-01 -2.422020506293E-01
C47 -2.483302072315E-01 -3.840459210225E-01  3.336638373770E-02
C48  2.483302072315E-01  3.840459210225E-01 -3.336638373770E-02
C49 -1.008958201339E-01 -4.756036482112E-01 -1.831623633171E-02
C50  1.008958201339E-01  4.756036482112E-01  1.831623633171E-02
C51  1.426553520397E-01 -4.793393308631E-01  1.043686892282E-01
C52 -1.426553520397E-01  4.793393308631E-01 -1.043686892282E-01
H53 -1.363028122019E-01  1.685688722240E-01  3.219847368786E-01
H54  1.363028122019E-01 -1.685688722240E-01 -3.219847368786E-01
H55 -3.793159967922E-02  3.643573070341E-01  4.542279898396E-01
H56  3.793159967922E-02 -3.643573070341E-01 -4.542279898396E-01
H57  3.367039197438E-01 -4.630405925082E-01  4.772763753777E-01
H58 -3.367039197438E-01  4.630405925082E-01 -4.772763753777E-01
H59 -3.864132250330E-01 -4.916382067459E-01  3.692952080707E-01
H60  3.864132250330E-01  4.916382067459E-01 -3.692952080707E-01
H61 -3.257454626254E-02  3.622771265914E-02  1.834322425338E-01
H62  3.257454626254E-02 -3.622771265914E-02 -1.834322425338E-01
H63 -2.822858696830E-01  3.751958070128E-01  2.298247333902E-01
H64  2.822858696830E-01 -3.751958070128E-01 -2.298247333902E-01
H65  7.238101348036E-02 -1.012070546037E-01  4.583703047417E-02
H66 -7.238101348036E-02  1.012070546037E-01 -4.583703047417E-02
H67 -1.773070119903E-01  2.386850538572E-01  9.179234973884E-02
H68  1.773070119903E-01 -2.386850538572E-01 -9.179234973884E-02
H69  3.913813308184E-01 -6.976857600784E-02  2.811763192208E-01
H70 -3.913813308184E-01  6.976857600784E-02 -2.811763192208E-01
H71  4.740717848256E-01  1.114576389875E-02  4.309668838624E-01
H72 -4.740717848256E-01 -1.114576389875E-02 -4.309668838624E-01
H73 -1.830257230560E-01 -8.155727008776E-02  4.952807788048E-01
H74  1.830257230560E-01  8.155727008776E-02 -4.952807788048E-01
H75  8.244030931667E-02 -2.400377746581E-01  4.072757133528E-01
H76 -8.244030931667E-02  2.400377746581E-01 -4.072757133528E-01
H77  4.952777529830E-01 -2.102455736801E-01  1.437170842869E-01
H78 -4.952777529830E-01  2.102455736801E-01 -1.437170842869E-01
H79  1.871725490929E-01 -3.797809142451E-01  2.697784650281E-01
H80 -1.871725490929E-01  3.797809142451E-01 -2.697784650281E-01
H81 -3.991985984338E-01 -3.471407290369E-01  5.946349731575E-03
H82  3.991985984338E-01  3.471407290369E-01 -5.946349731575E-03
H83  2.934583858536E-01  4.837950082709E-01  1.318478591441E-01
H84 -2.934583858536E-01 -4.837950082709E-01 -1.318478591441E-01


#===END

data_OPT_STEP_34

_symmetry_space_group_name_H-M 'P 1'
_cell_length_a      6.10193786
_cell_length_b      7.23893142
_cell_length_c     16.08425405
_cell_angle_alpha   96.469280
_cell_angle_beta   90.883617
_cell_angle_gamma   95.740660

loop_
_atom_site_label
_atom_site_fract_x
_atom_site_fract_y
_atom_site_fract_z
C1  2.622121648584E-02  2.429574409058E-01  3.322233324885E-01
C2 -2.622121648584E-02 -2.429574409058E-01 -3.322233324885E-01
C3  8.108003064628E-02  3.517299913190E-01  4.052183139503E-01
C4 -8.108003064628E-02 -3.517299913190E-01 -4.052183139503E-01
C5  2.956927665020E-01  4.487665023624E-01  4.187020243460E-01
C6 -2.956927665020E-01 -4.487665023624E-01 -4.187020243460E-01
C7  4.500139497147E-01  4.335612669549E-01  3.590462631899E-01
C8 -4.500139497147E-01 -4.335612669549E-01 -3.590462631899E-01
C9  4.002259161625E-01  3.202345116300E-01  2.812159375414E-01
C10 -4.002259161625E-01 -3.202345116300E-01 -2.812159375414E-01
C11  1.821981077015E-01  2.227260523287E-01  2.674933153063E-01
C12 -1.821981077015E-01 -2.227260523287E-01 -2.674933153063E-01
C13  1.304024727992E-01  1.105941254795E-01  1.932755862334E-01
C14 -1.304024727992E-01 -1.105941254795E-01 -1.932755862334E-01
C15  2.858336544034E-01  8.833411589357E-02  1.300745285213E-01
C16 -2.858336544034E-01 -8.833411589357E-02 -1.300745285213E-01
C17 -4.959151889434E-01  1.866596994264E-01  1.436341009507E-01
C18  4.959151889434E-01 -1.866596994264E-01 -1.436341009507E-01
C19 -4.460927706308E-01  3.013215396485E-01  2.195812292840E-01
C20  4.460927706308E-01 -3.013215396485E-01 -2.195812292840E-01
C21  2.354440897774E-01 -2.664024751797E-02  5.564637659223E-02
C22 -2.354440897774E-01  2.664024751797E-02 -5.564637659223E-02
C23  3.908236331366E-01 -4.934645102531E-02 -6.742780691863E-03
C24 -3.908236331366E-01  4.934645102531E-02  6.742780691863E-03
C25 -3.410364875566E-01  1.649901965083E-01  8.165685160700E-02
C26  3.410364875566E-01 -1.649901965083E-01 -8.165685160700E-02
C27 -4.592832646098E-01 -1.084293874771E-01  3.090438389340E-01
C28  4.592832646098E-01  1.084293874771E-01 -3.090438389340E-01
C29 -4.138784774783E-01 -6.589220663637E-02  3.922805600032E-01
C30  4.138784774783E-01  6.589220663637E-02 -3.922805600032E-01
C31 -2.174124280758E-01 -1.164311279628E-01  4.286335470196E-01
C32  2.174124280758E-01  1.164311279628E-01 -4.286335470196E-01
C33 -7.003491125609E-02 -2.049099676839E-01  3.803846975494E-01
C34  7.003491125609E-02  2.049099676839E-01 -3.803846975494E-01
C35 -1.101451456728E-01 -2.523386064266E-01  2.925009893724E-01
C36  1.101451456728E-01  2.523386064266E-01 -2.925009893724E-01
C37 -3.111749326604E-01 -2.037472617854E-01  2.560101418676E-01
C38  3.111749326604E-01  2.037472617854E-01 -2.560101418676E-01
C39 -3.540184122974E-01 -2.475682568463E-01  1.711795208653E-01
C40  3.540184122974E-01  2.475682568463E-01 -1.711795208653E-01
C41 -2.061100384438E-01 -3.397042642116E-01  1.189394617314E-01
C42  2.061100384438E-01  3.397042642117E-01 -1.189394617314E-01
C43 -4.563665787674E-03 -3.884825805168E-01  1.555181924214E-01
C44  4.563665787674E-03  3.884825805168E-01 -1.555181924214E-01
C45  3.654675117391E-02 -3.429132196585E-01  2.421782735071E-01
C46 -3.654675117391E-02  3.429132196585E-01 -2.421782735071E-01
C47 -2.483661758474E-01 -3.841523748973E-01  3.339208342291E-02
C48  2.483661758474E-01  3.841523748973E-01 -3.339208342291E-02
C49 -1.008975019268E-01 -4.756085717976E-01 -1.830238482135E-02
C50  1.008975019268E-01  4.756085717976E-01  1.830238482135E-02
C51  1.426600459668E-01 -4.793836004062E-01  1.043424957478E-01
C52 -1.426600459668E-01  4.793836004062E-01 -1.043424957478E-01
H53 -1.366718884199E-01  1.684333405088E-01  3.219053540526E-01
H54  1.366718884199E-01 -1.684333405088E-01 -3.219053540526E-01
H55 -3.841438889912E-02  3.641756431465E-01  4.541057770983E-01
H56  3.841438889912E-02 -3.641756431465E-01 -4.541057770983E-01
H57  3.365615818610E-01 -4.637047346060E-01  4.772332141257E-01
H58 -3.365615818610E-01  4.637047346060E-01 -4.772332141257E-01
H59 -3.866294681858E-01 -4.921395309723E-01  3.692646140744E-01
H60  3.866294681858E-01  4.921395309723E-01 -3.692646140744E-01
H61 -3.294075635910E-02  3.634144297110E-02  1.833082229904E-01
H62  3.294075635910E-02 -3.634144297110E-02 -1.833082229904E-01
H63 -2.824785663599E-01  3.749871437906E-01  2.298194957184E-01
H64  2.824785663599E-01 -3.749871437906E-01 -2.298194957184E-01
H65  7.213007197623E-02 -1.009379223249E-01  4.571033857479E-02
H66 -7.213007197623E-02  1.009379223249E-01 -4.571033857479E-02
H67 -1.776136523184E-01  2.390045522248E-01  9.171741434496E-02
H68  1.776136523184E-01 -2.390045522248E-01 -9.171741434496E-02
H69  3.915880682322E-01 -6.972468528169E-02  2.811690140907E-01
H70 -3.915880682322E-01  6.972468528169E-02 -2.811690140907E-01
H71  4.741073316717E-01  1.092784828086E-02  4.309438453293E-01
H72 -4.741073316717E-01 -1.092784828086E-02 -4.309438453293E-01
H73 -1.831510935489E-01 -8.199830757227E-02  4.952441758760E-01
H74  1.831510935489E-01  8.199830757227E-02 -4.952441758760E-01
H75  8.233518722635E-02 -2.403876204169E-01  4.072208570788E-01
H76 -8.233518722635E-02  2.403876204169E-01 -4.072208570788E-01
H77  4.952939118375E-01 -2.103907865880E-01  1.437439634651E-01
H78 -4.952939118375E-01  2.103907865880E-01 -1.437439634651E-01
H79  1.869992405052E-01 -3.801360445483E-01  2.697535169205E-01
H80 -1.869992405052E-01  3.801360445483E-01 -2.697535169205E-01
H81 -3.992205592263E-01 -3.472510423962E-01  5.985348201261E-03
H82  3.992205592263E-01  3.472510423962E-01 -5.985348201261E-03
H83  2.934508501889E-01  4.837656056075E-01  1.318103829378E-01
H84 -2.934508501889E-01 -4.837656056075E-01 -1.318103829378E-01


#===END

data_OPT_STEP_35

_symmetry_space_group_name_H-M 'P 1'
_cell_length_a      6.10184975
_cell_length_b      7.23856262
_cell_length_c     16.08330068
_cell_angle_alpha   96.472944
_cell_angle_beta   90.891470
_cell_angle_gamma   95.733429

loop_
_atom_site_label
_atom_site_fract_x
_atom_site_fract_y
_atom_site_fract_z
C1  2.630478275941E-02  2.429947954774E-01  3.322474707449E-01
C2 -2.630478275941E-02 -2.429947954774E-01 -3.322474707449E-01
C3  8.117473918496E-02  3.517856868156E-01  4.052446210512E-01
C4 -8.117473918496E-02 -3.517856868156E-01 -4.052446210512E-01
C5  2.957643661264E-01  4.488704052966E-01  4.187276086240E-01
C6 -2.957643661264E-01 -4.488704052966E-01 -4.187276086240E-01
C7  4.500617199191E-01  4.336869413673E-01  3.590656733311E-01
C8 -4.500617199191E-01 -4.336869413673E-01 -3.590656733311E-01
C9  4.002620290947E-01  3.203454761868E-01  2.812286661092E-01
C10 -4.002620290947E-01 -3.203454761868E-01 -2.812286661092E-01
C11  1.822552188211E-01  2.227949973918E-01  2.675077998634E-01
C12 -1.822552188211E-01 -2.227949973918E-01 -2.675077998634E-01
C13  1.304542633368E-01  1.106333946156E-01  1.932875146824E-01
C14 -1.304542633368E-01 -1.106333946156E-01 -1.932875146824E-01
C15  2.858716661318E-01  8.835589789899E-02  1.300839075643E-01
C16 -2.858716661318E-01 -8.835589789899E-02 -1.300839075643E-01
C17 -4.958745335578E-01  1.866851284317E-01  1.436509643423E-01
C18  4.958745335578E-01 -1.866851284317E-01 -1.436509643423E-01
C19 -4.460546335494E-01  3.013922410874E-01  2.195989349509E-01
C20  4.460546335494E-01 -3.013922410874E-01 -2.195989349509E-01
C21  2.354622227528E-01 -2.663619477198E-02  5.564903784332E-02
C22 -2.354622227528E-01  2.663619477198E-02 -5.564903784332E-02
C23  3.908092789610E-01 -4.932920940236E-02 -6.751460093983E-03
C24 -3.908092789610E-01  4.932920940236E-02  6.751460093983E-03
C25 -3.410279564025E-01  1.650316118912E-01  8.166273082283E-02
C26  3.410279564025E-01 -1.650316118912E-01 -8.166273082283E-02
C27 -4.592322637244E-01 -1.083010186157E-01  3.090505135945E-01
C28  4.592322637244E-01  1.083010186157E-01 -3.090505135945E-01
C29 -4.138206979724E-01 -6.576312290851E-02  3.922959413693E-01
C30  4.138206979724E-01  6.576312290851E-02 -3.922959413693E-01
C31 -2.173260470163E-01 -1.162969289635E-01  4.286545552867E-01
C32  2.173260470163E-01  1.162969289635E-01 -4.286545552867E-01
C33 -6.995474325933E-02 -2.048028084495E-01  3.804057653422E-01
C34  6.995474325933E-02  2.048028084495E-01 -3.804057653422E-01
C35 -1.100881708053E-01 -2.522562553540E-01  2.925160041740E-01
C36  1.100881708053E-01  2.522562553540E-01 -2.925160041740E-01
C37 -3.111350303365E-01 -2.036541218550E-01  2.560178410059E-01
C38  3.111350303365E-01  2.036541218550E-01 -2.560178410059E-01
C39 -3.540369863435E-01 -2.475487464300E-01  1.711851844623E-01
C40  3.540369863435E-01  2.475487464300E-01 -1.711851844623E-01
C41 -2.061141524584E-01 -3.396838506202E-01  1.189434288505E-01
C42  2.061141524584E-01  3.396838506202E-01 -1.189434288505E-01
C43 -4.583992661416E-03 -3.885180224773E-01  1.555322097475E-01
C44  4.583992661416E-03  3.885180224773E-01 -1.555322097475E-01
C45  3.658764308476E-02 -3.428697589108E-01  2.421951105001E-01
C46 -3.658764308476E-02  3.428697589108E-01 -2.421951105001E-01
C47 -2.483912231116E-01 -3.841514319078E-01  3.339034585974E-02
C48  2.483912231116E-01  3.841514319078E-01 -3.339034585974E-02
C49 -1.008917038172E-01 -4.755832865107E-01 -1.830708133683E-02
C50  1.008917038172E-01  4.755832865107E-01  1.830708133683E-02
C51  1.426446041840E-01 -4.794308823200E-01  1.043557354502E-01
C52 -1.426446041840E-01  4.794308823200E-01 -1.043557354502E-01
H53 -1.365536519301E-01  1.684008831264E-01  3.219435545522E-01
H54  1.365536519301E-01 -1.684008831264E-01 -3.219435545522E-01
H55 -3.826116657309E-02  3.641849733411E-01  4.541527600003E-01
H56  3.826116657309E-02 -3.641849733411E-01 -4.541527600003E-01
H57  3.365333611562E-01 -4.634973681830E-01  4.772499095090E-01
H58 -3.365333611562E-01  4.634973681830E-01 -4.772499095090E-01
H59 -3.866008694160E-01 -4.919849256793E-01  3.692783169888E-01
H60  3.866008694160E-01  4.919849256793E-01 -3.692783169888E-01
H61 -3.288510111616E-02  3.637083341135E-02  1.833234815724E-01
H62  3.288510111616E-02 -3.637083341135E-02 -1.833234815724E-01
H63 -2.824576261031E-01  3.750822043554E-01  2.298288682115E-01
H64  2.824576261031E-01 -3.750822043554E-01 -2.298288682115E-01
H65  7.216448842710E-02 -1.009686114153E-01  4.572431775782E-02
H66 -7.216448842710E-02  1.009686114153E-01 -4.572431775782E-02
H67 -1.776182702350E-01  2.390821555340E-01  9.171183990998E-02
H68  1.776182702350E-01 -2.390821555340E-01 -9.171183990998E-02
H69  3.916097303714E-01 -6.961370310129E-02  2.811716654743E-01
H70 -3.916097303714E-01  6.961370310129E-02 -2.811716654743E-01
H71  4.741764614714E-01  1.109078718718E-02  4.309560549207E-01
H72 -4.741764614714E-01 -1.109078718718E-02 -4.309560549207E-01
H73 -1.830245359341E-01 -8.182028317293E-02  4.952688054843E-01
H74  1.830245359341E-01  8.182028317293E-02 -4.952688054843E-01
H75  8.242671652022E-02 -2.402982998737E-01  4.072474902023E-01
H76 -8.242671652022E-02  2.402982998737E-01 -4.072474902023E-01
H77  4.952258099228E-01 -2.104186035148E-01  1.437492701994E-01
H78 -4.952258099228E-01  2.104186035148E-01 -1.437492701994E-01
H79  1.870797659805E-01 -3.800682161357E-01  2.697716088494E-01
H80 -1.870797659805E-01  3.800682161357E-01 -2.697716088494E-01
H81 -3.992938337367E-01 -3.472898920371E-01  5.983123910222E-03
H82  3.992938337367E-01  3.472898920371E-01 -5.983123910222E-03
H83  2.934591519250E-01  4.837178465571E-01  1.318254191886E-01
H84 -2.934591519250E-01 -4.837178465571E-01 -1.318254191886E-01


#===END

data_OPT_STEP_36

_symmetry_space_group_name_H-M 'P 1'
_cell_length_a      6.10168506
_cell_length_b      7.23907691
_cell_length_c     16.08263205
_cell_angle_alpha   96.480946
_cell_angle_beta   90.899503
_cell_angle_gamma   95.733742

loop_
_atom_site_label
_atom_site_fract_x
_atom_site_fract_y
_atom_site_fract_z
C1  2.636414047314E-02  2.430731183973E-01  3.322556651636E-01
C2 -2.636414047314E-02 -2.430731183973E-01 -3.322556651636E-01
C3  8.125656271089E-02  3.518702010667E-01  4.052570182423E-01
C4 -8.125656271089E-02 -3.518702010667E-01 -4.052570182423E-01
C5  2.958372512027E-01  4.489872185416E-01  4.187420828194E-01
C6 -2.958372512027E-01 -4.489872185416E-01 -4.187420828194E-01
C7  4.501151801368E-01  4.338245741125E-01  3.590770831041E-01
C8 -4.501151801368E-01 -4.338245741125E-01 -3.590770831041E-01
C9  4.003219274463E-01  3.204293231281E-01  2.812445769423E-01
C10 -4.003219274463E-01 -3.204293231281E-01 -2.812445769423E-01
C11  1.823196148139E-01  2.228513822352E-01  2.675207345280E-01
C12 -1.823196148139E-01 -2.228513822352E-01 -2.675207345280E-01
C13  1.305144390864E-01  1.106448573963E-01  1.933001010146E-01
C14 -1.305144390864E-01 -1.106448573963E-01 -1.933001010146E-01
C15  2.859187673663E-01  8.835516177851E-02  1.300952704239E-01
C16 -2.859187673663E-01 -8.835516177851E-02 -1.300952704239E-01
C17 -4.958288626541E-01  1.867131051010E-01  1.436664567916E-01
C18  4.958288626541E-01 -1.867131051010E-01 -1.436664567916E-01
C19 -4.459818618505E-01  3.014232898780E-01  2.196259946982E-01
C20  4.459818618505E-01 -3.014232898780E-01 -2.196259946982E-01
C21  2.354973606311E-01 -2.667948519724E-02  5.565945706252E-02
C22 -2.354973606311E-01  2.667948519724E-02 -5.565945706252E-02
C23  3.908021557457E-01 -4.933285778795E-02 -6.756389758854E-03
C24 -3.908021557457E-01  4.933285778795E-02  6.756389758854E-03
C25 -3.409892350672E-01  1.650353890468E-01  8.167980379143E-02
C26  3.409892350672E-01 -1.650353890468E-01 -8.167980379143E-02
C27 -4.592777969330E-01 -1.083421641931E-01  3.090575785642E-01
C28  4.592777969330E-01  1.083421641931E-01 -3.090575785642E-01
C29 -4.138554430248E-01 -6.577866515154E-02  3.923102944479E-01
C30  4.138554430248E-01  6.577866515154E-02 -3.923102944479E-01
C31 -2.173299636894E-01 -1.162701303272E-01  4.286775573592E-01
C32  2.173299636894E-01  1.162701303272E-01 -4.286775573592E-01
C33 -6.993037567296E-02 -2.047430475510E-01  3.804283504343E-01
C34  6.993037567296E-02  2.047430475510E-01 -3.804283504343E-01
C35 -1.100628658758E-01 -2.522001985689E-01  2.925307681061E-01
C36  1.100628658758E-01  2.522001985689E-01 -2.925307681061E-01
C37 -3.111462294128E-01 -2.036503178270E-01  2.560250367531E-01
C38  3.111462294128E-01  2.036503178270E-01 -2.560250367531E-01
C39 -3.540023059037E-01 -2.474848573202E-01  1.711809191398E-01
C40  3.540023059037E-01  2.474848573202E-01 -1.711809191398E-01
C41 -2.060686851675E-01 -3.396084921750E-01  1.189403707719E-01
C42  2.060686851675E-01  3.396084921750E-01 -1.189403707719E-01
C43 -4.546344165731E-03 -3.884531833165E-01  1.555402461010E-01
C44  4.546344165731E-03  3.884531833165E-01 -1.555402461010E-01
C45  3.663853171669E-02 -3.427793140604E-01  2.422098816233E-01
C46 -3.663853171669E-02  3.427793140604E-01 -2.422098816233E-01
C47 -2.483481511440E-01 -3.840849360764E-01  3.338007690168E-02
C48  2.483481511440E-01  3.840849360764E-01 -3.338007690168E-02
C49 -1.008923036389E-01 -4.755841812622E-01 -1.831205282540E-02
C50  1.008923036389E-01  4.755841812622E-01  1.831205282540E-02
C51  1.426733735294E-01 -4.793825621123E-01  1.043658311739E-01
C52 -1.426733735294E-01  4.793825621123E-01 -1.043658311739E-01
H53 -1.364966670134E-01  1.684705423555E-01  3.219489986937E-01
H54  1.364966670134E-01 -1.684705423555E-01 -3.219489986937E-01
H55 -3.811801681930E-02  3.642165803405E-01  4.541860890650E-01
H56  3.811801681930E-02 -3.642165803405E-01 -4.541860890650E-01
H57  3.365180307615E-01 -4.632995504780E-01  4.772604809348E-01
H58 -3.365180307615E-01  4.632995504780E-01 -4.772604809348E-01
H59 -3.865645483163E-01 -4.918138538908E-01  3.692844141647E-01
H60  3.865645483163E-01  4.918138538908E-01 -3.692844141647E-01
H61 -3.283721400047E-02  3.639232489866E-02  1.833313535496E-01
H62  3.283721400047E-02 -3.639232489866E-02 -1.833313535496E-01
H63 -2.824106311489E-01  3.751603876655E-01  2.298454036709E-01
H64  2.824106311489E-01 -3.751603876655E-01 -2.298454036709E-01
H65  7.221061864681E-02 -1.010476041688E-01  4.574289645611E-02
H66 -7.221061864681E-02  1.010476041688E-01 -4.574289645611E-02
H67 -1.775486135685E-01  2.390500256162E-01  9.173893487015E-02
H68  1.775486135685E-01 -2.390500256162E-01 -9.173893487015E-02
H69  3.915131494093E-01 -6.972708057650E-02  2.811748434501E-01
H70 -3.915131494093E-01  6.972708057650E-02 -2.811748434501E-01
H71  4.741688837378E-01  1.112413011342E-02  4.309640785296E-01
H72 -4.741688837378E-01 -1.112413011342E-02 -4.309640785296E-01
H73 -1.830170142396E-01 -8.177175161123E-02  4.952980695992E-01
H74  1.830170142396E-01  8.177175161123E-02 -4.952980695992E-01
H75  8.247288174108E-02 -2.402215276503E-01  4.072736865219E-01
H76 -8.247288174108E-02  2.402215276503E-01 -4.072736865219E-01
H77  4.952620349425E-01 -2.103501361912E-01  1.437375734275E-01
H78 -4.952620349425E-01  2.103501361912E-01 -1.437375734275E-01
H79  1.871240764561E-01 -3.799959312119E-01  2.697939464149E-01
H80 -1.871240764561E-01  3.799959312119E-01 -2.697939464149E-01
H81 -3.992331538521E-01 -3.471908439216E-01  5.964632449150E-03
H82  3.992331538521E-01  3.471908439216E-01 -5.964632449150E-03
H83  2.934815595080E-01  4.837480515438E-01  1.318419940264E-01
H84 -2.934815595080E-01 -4.837480515438E-01 -1.318419940264E-01


#===END

data_OPT_STEP_37

_symmetry_space_group_name_H-M 'P 1'
_cell_length_a      6.10275466
_cell_length_b      7.23892141
_cell_length_c     16.08081287
_cell_angle_alpha   96.493613
_cell_angle_beta   90.918727
_cell_angle_gamma   95.732788

loop_
_atom_site_label
_atom_site_fract_x
_atom_site_fract_y
_atom_site_fract_z
C1  2.642935585409E-02  2.431843570217E-01  3.322377198322E-01
C2 -2.642935585409E-02 -2.431843570217E-01 -3.322377198322E-01
C3  8.134274688906E-02  3.519653786400E-01  4.052664232924E-01
C4 -8.134274688906E-02 -3.519653786400E-01 -4.052664232924E-01
C5  2.958631521953E-01  4.491460315698E-01  4.187728874191E-01
C6 -2.958631521953E-01 -4.491460315698E-01 -4.187728874191E-01
C7  4.501025745474E-01  4.340030985663E-01  3.591155559572E-01
C8 -4.501025745474E-01 -4.340030985663E-01 -3.591155559572E-01
C9  4.003149520813E-01  3.205812035374E-01  2.812644031674E-01
C10 -4.003149520813E-01 -3.205812035374E-01 -2.812644031674E-01
C11  1.823444611109E-01  2.229889911358E-01  2.675056674814E-01
C12 -1.823444611109E-01 -2.229889911358E-01 -2.675056674814E-01
C13  1.305333273890E-01  1.107745221076E-01  1.932595902229E-01
C14 -1.305333273890E-01 -1.107745221076E-01 -1.932595902229E-01
C15  2.859188483722E-01  8.845853129048E-02  1.300689777825E-01
C16 -2.859188483722E-01 -8.845853129048E-02 -1.300689777825E-01
C17 -4.958781398951E-01  1.868644380395E-01  1.436684186778E-01
C18  4.958781398951E-01 -1.868644380395E-01 -1.436684186778E-01
C19 -4.460409791281E-01  3.016102293635E-01  2.196470617641E-01
C20  4.460409791281E-01 -3.016102293635E-01 -2.196470617641E-01
C21  2.355486290501E-01 -2.669388246929E-02  5.563530772441E-02
C22 -2.355486290501E-01  2.669388246929E-02 -5.563530772441E-02
C23  3.908387269217E-01 -4.937924508836E-02 -6.764678402017E-03
C24 -3.908387269217E-01  4.937924508836E-02  6.764678402017E-03
C25 -3.410584202123E-01  1.651616160704E-01  8.169590348006E-02
C26  3.410584202123E-01 -1.651616160704E-01 -8.169590348006E-02
C27 -4.591144710838E-01 -1.081476078446E-01  3.090498510888E-01
C28  4.591144710838E-01  1.081476078446E-01 -3.090498510888E-01
C29 -4.136997426139E-01 -6.555809590998E-02  3.923206207169E-01
C30  4.136997426139E-01  6.555809590998E-02 -3.923206207169E-01
C31 -2.171742405655E-01 -1.159964657583E-01  4.287127291817E-01
C32  2.171742405655E-01  1.159964657583E-01 -4.287127291817E-01
C33 -6.981060792594E-02 -2.045021390311E-01  3.804724535148E-01
C34  6.981060792594E-02  2.045021390311E-01 -3.804724535148E-01
C35 -1.099585371175E-01 -2.520111426604E-01  2.925589207767E-01
C36  1.099585371175E-01  2.520111426604E-01 -2.925589207767E-01
C37 -3.110272287483E-01 -2.034976808777E-01  2.560276076330E-01
C38  3.110272287483E-01  2.034976808777E-01 -2.560276076330E-01
C39 -3.539082498797E-01 -2.473992349630E-01  1.711691665712E-01
C40  3.539082498797E-01  2.473992349630E-01 -1.711691665712E-01
C41 -2.060358975373E-01 -3.395866548135E-01  1.189388799981E-01
C42  2.060358975373E-01  3.395866548135E-01 -1.189388799981E-01
C43 -4.520719973336E-03 -3.883850952971E-01  1.555631712527E-01
C44  4.520719973336E-03  3.883850952971E-01 -1.555631712527E-01
C45  3.670431573459E-02 -3.426222524986E-01  2.422468781701E-01
C46 -3.670431573459E-02  3.426222524986E-01 -2.422468781701E-01
C47 -2.483409726783E-01 -3.841282815329E-01  3.336391319894E-02
C48  2.483409726783E-01  3.841282815329E-01 -3.336391319894E-02
C49 -1.008883948453E-01 -4.756062128820E-01 -1.832398618278E-02
C50  1.008883948453E-01  4.756062128820E-01  1.832398618278E-02
C51  1.426553179823E-01 -4.793531508529E-01  1.043967713017E-01
C52 -1.426553179823E-01  4.793531508529E-01 -1.043967713017E-01
H53 -1.364061750604E-01  1.685669049018E-01  3.219114526462E-01
H54  1.364061750604E-01 -1.685669049018E-01 -3.219114526462E-01
H55 -3.795662268673E-02  3.642496063636E-01  4.542095581289E-01
H56  3.795662268673E-02 -3.642496063636E-01 -4.542095581289E-01
H57  3.364924197360E-01 -4.631060265285E-01  4.773067552574E-01
H58 -3.364924197360E-01  4.631060265285E-01 -4.773067552574E-01
H59 -3.866143606416E-01 -4.916005387182E-01  3.693379053200E-01
H60  3.866143606416E-01  4.916005387182E-01 -3.693379053200E-01
H61 -3.278354656089E-02  3.649139103117E-02  1.832763015538E-01
H62  3.278354656089E-02 -3.649139103117E-02 -1.832763015538E-01
H63 -2.825270042059E-01  3.754186803875E-01  2.298719420887E-01
H64  2.825270042059E-01 -3.754186803875E-01 -2.298719420887E-01
H65  7.230062999423E-02 -1.011026146837E-01  4.570709879580E-02
H66 -7.230062999423E-02  1.011026146837E-01 -4.570709879580E-02
H67 -1.776431398812E-01  2.391966483982E-01  9.177176156532E-02
H68  1.776431398812E-01 -2.391966483982E-01 -9.177176156532E-02
H69  3.916925276469E-01 -6.954494576107E-02  2.811487364786E-01
H70 -3.916925276469E-01  6.954494576107E-02 -2.811487364786E-01
H71  4.743282907636E-01  1.134379368464E-02  4.309665414480E-01
H72 -4.743282907636E-01 -1.134379368464E-02 -4.309665414480E-01
H73 -1.828427139879E-01 -8.145023431782E-02  4.953443164113E-01
H74  1.828427139879E-01  8.145023431782E-02 -4.953443164113E-01
H75  8.256978460697E-02 -2.399907825649E-01  4.073331947173E-01
H76 -8.256978460697E-02  2.399907825649E-01 -4.073331947173E-01
H77  4.953761579090E-01 -2.102706141595E-01  1.437086014542E-01
H78 -4.953761579090E-01  2.102706141595E-01 -1.437086014542E-01
H79  1.871762088127E-01 -3.798270760914E-01  2.698481593548E-01
H80 -1.871762088127E-01  3.798270760914E-01 -2.698481593548E-01
H81 -3.992294669318E-01 -3.472719376257E-01  5.933853190675E-03
H82  3.992294669318E-01  3.472719376257E-01 -5.933853190675E-03
H83  2.934289108631E-01  4.837573763442E-01  1.318908560980E-01
H84 -2.934289108631E-01 -4.837573763442E-01 -1.318908560980E-01


#===END

data_OPT_STEP_38

_symmetry_space_group_name_H-M 'P 1'
_cell_length_a      6.10269133
_cell_length_b      7.23801035
_cell_length_c     16.08119598
_cell_angle_alpha   96.510442
_cell_angle_beta   90.929612
_cell_angle_gamma   95.726584

loop_
_atom_site_label
_atom_site_fract_x
_atom_site_fract_y
_atom_site_fract_z
C1  2.676044081956E-02  2.432023493369E-01  3.323052156656E-01
C2 -2.676044081956E-02 -2.432023493369E-01 -3.323052156656E-01
C3  8.165039546643E-02  3.521418014917E-01  4.053110943974E-01
C4 -8.165039546643E-02 -3.521418014917E-01 -4.053110943974E-01
C5  2.961041199931E-01  4.494606052707E-01  4.187967826566E-01
C6 -2.961041199931E-01 -4.494606052707E-01 -4.187967826566E-01
C7  4.503631066095E-01  4.342164423301E-01  3.591595285128E-01
C8 -4.503631066095E-01 -4.342164423301E-01 -3.591595285128E-01
C9  4.005819939890E-01  3.206554455098E-01  2.813219780980E-01
C10 -4.005819939890E-01 -3.206554455098E-01 -2.813219780980E-01
C11  1.826263002869E-01  2.230225583085E-01  2.675641551977E-01
C12 -1.826263002869E-01 -2.230225583085E-01 -2.675641551977E-01
C13  1.307599645041E-01  1.107826530337E-01  1.933063554112E-01
C14 -1.307599645041E-01 -1.107826530337E-01 -1.933063554112E-01
C15  2.860778865895E-01  8.846112332414E-02  1.301028148682E-01
C16 -2.860778865895E-01 -8.846112332414E-02 -1.301028148682E-01
C17 -4.957040289264E-01  1.868520260897E-01  1.437118817993E-01
C18  4.957040289264E-01 -1.868520260897E-01 -1.437118817993E-01
C19 -4.458064829931E-01  3.016272083832E-01  2.197038824446E-01
C20  4.458064829931E-01 -3.016272083832E-01 -2.197038824446E-01
C21  2.356094991292E-01 -2.666718193696E-02  5.564574531941E-02
C22 -2.356094991292E-01  2.666718193696E-02 -5.564574531941E-02
C23  3.908318358352E-01 -4.937319566523E-02 -6.768178417252E-03
C24 -3.908318358352E-01  4.937319566523E-02  6.768178417252E-03
C25 -3.409693096444E-01  1.651584148412E-01  8.171697181223E-02
C26  3.409693096444E-01 -1.651584148412E-01 -8.171697181223E-02
C27 -4.591398010839E-01 -1.080518007632E-01  3.090569589754E-01
C28  4.591398010839E-01  1.080518007632E-01 -3.090569589754E-01
C29 -4.136984233465E-01 -6.541261879702E-02  3.923321392012E-01
C30  4.136984233465E-01  6.541261879702E-02 -3.923321392012E-01
C31 -2.171625807300E-01 -1.158466027723E-01  4.287292198369E-01
C32  2.171625807300E-01  1.158466027723E-01 -4.287292198369E-01
C33 -6.981962336103E-02 -2.044083192589E-01  3.804907289617E-01
C34  6.981962336103E-02  2.044083192589E-01 -3.804907289617E-01
C35 -1.099799572202E-01 -2.519404465767E-01  2.925723363076E-01
C36  1.099799572202E-01  2.519404465767E-01 -2.925723363076E-01
C37 -3.110564058089E-01 -2.034315365917E-01  2.560349900406E-01
C38  3.110564058089E-01  2.034315365917E-01 -2.560349900406E-01
C39 -3.539727152484E-01 -2.474074080935E-01  1.711734564615E-01
C40  3.539727152484E-01  2.474074080935E-01 -1.711734564615E-01
C41 -2.060648875374E-01 -3.395704266571E-01  1.189410365962E-01
C42  2.060648875374E-01  3.395704266571E-01 -1.189410365962E-01
C43 -4.553067617602E-03 -3.883760908465E-01  1.555727077689E-01
C44  4.553067617602E-03  3.883760908465E-01 -1.555727077689E-01
C45  3.670416721533E-02 -3.425436901496E-01  2.422585065106E-01
C46 -3.670416721533E-02  3.425436901496E-01 -2.422585065106E-01
C47 -2.483556262340E-01 -3.841228378836E-01  3.335953999004E-02
C48  2.483556262340E-01  3.841228378836E-01 -3.335953999004E-02
C49 -1.008704978229E-01 -4.755807605120E-01 -1.832889331090E-02
C50  1.008704978229E-01  4.755807605120E-01  1.832889331090E-02
C51  1.426178040493E-01 -4.793770863393E-01  1.044083303276E-01
C52 -1.426178040493E-01  4.793770863393E-01 -1.044083303276E-01
H53 -1.360234889242E-01  1.684935350110E-01  3.219912797538E-01
H54  1.360234889242E-01 -1.684935350110E-01 -3.219912797538E-01
H55 -3.753721612402E-02  3.643677896313E-01  4.542854792755E-01
H56  3.753721612402E-02 -3.643677896313E-01 -4.542854792755E-01
H57  3.365576293682E-01 -4.626146623491E-01  4.773144207584E-01
H58 -3.365576293682E-01  4.626146623491E-01 -4.773144207584E-01
H59 -3.863944685517E-01 -4.913334197362E-01  3.693709605244E-01
H60  3.863944685517E-01  4.913334197362E-01 -3.693709605244E-01
H61 -3.254334968847E-02  3.647654695457E-02  1.833279852064E-01
H62  3.254334968847E-02 -3.647654695457E-02 -1.833279852064E-01
H63 -2.823085847937E-01  3.754457066346E-01  2.299250458287E-01
H64  2.823085847937E-01 -3.754457066346E-01 -2.299250458287E-01
H65  7.234516886339E-02 -1.010461991170E-01  4.571338696404E-02
H66 -7.234516886339E-02  1.010461991170E-01 -4.571338696404E-02
H67 -1.775487669698E-01  2.391889149079E-01  9.179013695216E-02
H68  1.775487669698E-01 -2.391889149079E-01 -9.179013695216E-02
H69  3.916627184194E-01 -6.945050224996E-02  2.811501179462E-01
H70 -3.916627184194E-01  6.945050224996E-02 -2.811501179462E-01
H71  4.743565293415E-01  1.153842553781E-02  4.309789985626E-01
H72 -4.743565293415E-01 -1.153842553780E-02 -4.309789985626E-01
H73 -1.828364795059E-01 -8.128349916128E-02  4.953686340888E-01
H74  1.828364795059E-01  8.128349916128E-02 -4.953686340888E-01
H75  8.257977174907E-02 -2.398954297067E-01  4.073494547020E-01
H76 -8.257977174907E-02  2.398954297067E-01 -4.073494547020E-01
H77  4.952711668614E-01 -2.103401087496E-01  1.437103909746E-01
H78 -4.952711668614E-01  2.103401087496E-01 -1.437103909746E-01
H79  1.872035405886E-01 -3.797121277216E-01  2.698635468522E-01
H80 -1.872035405886E-01  3.797121277216E-01 -2.698635468522E-01
H81 -3.992519995778E-01 -3.472804688238E-01  5.923541216343E-03
H82  3.992519995778E-01  3.472804688238E-01 -5.923541216343E-03
H83  2.933930301353E-01  4.837352942982E-01  1.319082331793E-01
H84 -2.933930301353E-01 -4.837352942982E-01 -1.319082331793E-01


#===END

data_OPT_STEP_39

_symmetry_space_group_name_H-M 'P 1'
_cell_length_a      6.10382411
_cell_length_b      7.23843066
_cell_length_c     16.07866821
_cell_angle_alpha   96.515952
_cell_angle_beta   90.948126
_cell_angle_gamma   95.730961

loop_
_atom_site_label
_atom_site_fract_x
_atom_site_fract_y
_atom_site_fract_z
C1  2.682598948600E-02  2.433332678129E-01  3.322789890895E-01
C2 -2.682598948600E-02 -2.433332678129E-01 -3.322789890895E-01
C3  8.172685977163E-02  3.522792606186E-01  4.053042749784E-01
C4 -8.172685977163E-02 -3.522792606186E-01 -4.053042749784E-01
C5  2.961281074366E-01  4.496557197120E-01  4.188074820154E-01
C6 -2.961281074366E-01 -4.496557197120E-01 -4.188074820154E-01
C7  4.503156252298E-01  4.344891134108E-01  3.591608737845E-01
C8 -4.503156252298E-01 -4.344891134108E-01 -3.591608737845E-01
C9  4.005472754187E-01  3.208763114966E-01  2.813136295354E-01
C10 -4.005472754187E-01 -3.208763114966E-01 -2.813136295354E-01
C11  1.826445162789E-01  2.231881853488E-01  2.675384638385E-01
C12 -1.826445162789E-01 -2.231881853488E-01 -2.675384638385E-01
C13  1.308003964599E-01  1.108856879414E-01  1.932738524204E-01
C14 -1.308003964599E-01 -1.108856879414E-01 -1.932738524204E-01
C15  2.861085231284E-01  8.851899117053E-02  1.300883640768E-01
C16 -2.861085231284E-01 -8.851899117053E-02 -1.300883640768E-01
C17 -4.957125488088E-01  1.869399377217E-01  1.437205814504E-01
C18  4.957125488088E-01 -1.869399377217E-01 -1.437205814504E-01
C19 -4.458529254035E-01  3.018075332934E-01  2.197114052117E-01
C20  4.458529254035E-01 -3.018075332934E-01 -2.197114052117E-01
C21  2.356523589593E-01 -2.665981553946E-02  5.562232149030E-02
C22 -2.356523589593E-01  2.665981553946E-02 -5.562232149030E-02
C23  3.908478019482E-01 -4.938182147958E-02 -6.781146502036E-03
C24 -3.908478019482E-01  4.938182147958E-02  6.781146502036E-03
C25 -3.410011324450E-01  1.652222364638E-01  8.173771630341E-02
C26  3.410011324450E-01 -1.652222364638E-01 -8.173771630341E-02
C27 -4.589963197180E-01 -1.079044443728E-01  3.090305633530E-01
C28  4.589963197180E-01  1.079044443728E-01 -3.090305633530E-01
C29 -4.135806426490E-01 -6.525746348079E-02  3.923271907878E-01
C30  4.135806426490E-01  6.525746348079E-02 -3.923271907878E-01
C31 -2.171001542833E-01 -1.156897098423E-01  4.287607774717E-01
C32  2.171001542833E-01  1.156897098423E-01 -4.287607774717E-01
C33 -6.975965972397E-02 -2.042180660295E-01  3.805331057228E-01
C34  6.975965972397E-02  2.042180660295E-01 -3.805331057228E-01
C35 -1.098835534299E-01 -2.517346012937E-01  2.925928016027E-01
C36  1.098835534299E-01  2.517346012937E-01 -2.925928016027E-01
C37 -3.109085024143E-01 -2.032397309473E-01  2.560188669342E-01
C38  3.109085024143E-01  2.032397309473E-01 -2.560188669342E-01
C39 -3.538200337432E-01 -2.472545895482E-01  1.711382416738E-01
C40  3.538200337432E-01  2.472545895482E-01 -1.711382416738E-01
C41 -2.059526310634E-01 -3.394395399699E-01  1.189211677986E-01
C42  2.059526310634E-01  3.394395399699E-01 -1.189211677986E-01
C43 -4.488401132386E-03 -3.882270649073E-01  1.555895315571E-01
C44  4.488401132386E-03  3.882270649073E-01 -1.555895315571E-01
C45  3.677116626956E-02 -3.423449779521E-01  2.422932183630E-01
C46 -3.677116626956E-02  3.423449779521E-01 -2.422932183630E-01
C47 -2.482720059849E-01 -3.840818950300E-01  3.332403611319E-02
C48  2.482720059849E-01  3.840818950300E-01 -3.332403611319E-02
C49 -1.008450921868E-01 -4.755885379428E-01 -1.834742130545E-02
C50  1.008450921868E-01  4.755885379428E-01  1.834742130545E-02
C51  1.426377365442E-01 -4.792570494175E-01  1.044409882735E-01
C52 -1.426377365442E-01  4.792570494175E-01 -1.044409882735E-01
H53 -1.359167838163E-01  1.685811403857E-01  3.219532340792E-01
H54  1.359167838163E-01 -1.685811403857E-01 -3.219532340792E-01
H55 -3.739207391921E-02  3.644473989571E-01  4.542901980094E-01
H56  3.739207391921E-02 -3.644473989571E-01 -4.542901980094E-01
H57  3.365568476945E-01 -4.624185767200E-01  4.773442300574E-01
H58 -3.365568476945E-01  4.624185767200E-01 -4.773442300574E-01
H59 -3.865106687887E-01 -4.909687306285E-01  3.693705385466E-01
H60  3.865106687887E-01  4.909687306285E-01 -3.693705385466E-01
H61 -3.249175059541E-02  3.659255054183E-02  1.832720474884E-01
H62  3.249175059541E-02 -3.659255054183E-02 -1.832720474884E-01
H63 -2.823530612659E-01  3.755955634125E-01  2.299603849127E-01
H64  2.823530612659E-01 -3.755955634125E-01 -2.299603849127E-01
H65  7.241939138517E-02 -1.010647333395E-01  4.567660608440E-02
H66 -7.241939138517E-02  1.010647333395E-01 -4.567660608440E-02
H67 -1.776358490375E-01  2.393208362756E-01  9.181344738848E-02
H68  1.776358490375E-01 -2.393208362756E-01 -9.181344738848E-02
H69  3.918394268619E-01 -6.931343477711E-02  2.810993149923E-01
H70 -3.918394268619E-01  6.931343477711E-02 -2.810993149923E-01
H71  4.744805063845E-01  1.168426673527E-02  4.309643667012E-01
H72 -4.744805063845E-01 -1.168426673527E-02 -4.309643667012E-01
H73 -1.828218206425E-01 -8.116073944209E-02  4.954185688630E-01
H74  1.828218206425E-01  8.116073944209E-02 -4.954185688630E-01
H75  8.262898446954E-02 -2.396766859972E-01  4.074082357446E-01
H76 -8.262898446954E-02  2.396766859972E-01 -4.074082357446E-01
H77  4.954339297092E-01 -2.102329237370E-01  1.436528414134E-01
H78 -4.954339297092E-01  2.102329237370E-01 -1.436528414134E-01
H79  1.872585644953E-01 -3.794699047677E-01  2.699215563639E-01
H80 -1.872585644953E-01  3.794699047677E-01 -2.699215563639E-01
H81 -3.991659119933E-01 -3.472977806541E-01  5.866333602008E-03
H82  3.991659119933E-01  3.472977806541E-01 -5.866333602008E-03
H83  2.934059881249E-01  4.839072864571E-01  1.319632769416E-01
H84 -2.934059881249E-01 -4.839072864571E-01 -1.319632769416E-01


#===END

data_OPT_STEP_40

_symmetry_space_group_name_H-M 'P 1'
_cell_length_a      6.10518731
_cell_length_b      7.23635339
_cell_length_c     16.07914775
_cell_angle_alpha   96.530478
_cell_angle_beta   90.954189
_cell_angle_gamma   95.725791

loop_
_atom_site_label
_atom_site_fract_x
_atom_site_fract_y
_atom_site_fract_z
C1  2.695719396434E-02  2.434016868686E-01  3.322892959898E-01
C2 -2.695719396434E-02 -2.434016868686E-01 -3.322892959898E-01
C3  8.190009303753E-02  3.523005602500E-01  4.053484484717E-01
C4 -8.190009303753E-02 -3.523005602500E-01 -4.053484484717E-01
C5  2.962278744690E-01  4.497702474926E-01  4.188595900007E-01
C6 -2.962278744690E-01 -4.497702474926E-01 -4.188595900007E-01
C7  4.503128734539E-01  4.347142428117E-01  3.591893831148E-01
C8 -4.503128734539E-01 -4.347142428117E-01 -3.591893831148E-01
C9  4.005495926161E-01  3.210555020581E-01  2.813281293819E-01
C10 -4.005495926161E-01 -3.210555020581E-01 -2.813281293819E-01
C11  1.827418063796E-01  2.232524966864E-01  2.675547893026E-01
C12 -1.827418063796E-01 -2.232524966864E-01 -2.675547893026E-01
C13  1.309561741880E-01  1.108246905686E-01  1.932990070536E-01
C14 -1.309561741880E-01 -1.108246905686E-01 -1.932990070536E-01
C15  2.861737744212E-01  8.854410978055E-02  1.300935497040E-01
C16 -2.861737744212E-01 -8.854410978055E-02 -1.300935497040E-01
C17 -4.957361691769E-01  1.870622199341E-01  1.437253639853E-01
C18  4.957361691769E-01 -1.870622199341E-01 -1.437253639853E-01
C19 -4.458975051806E-01  3.019885114607E-01  2.197246732348E-01
C20  4.458975051806E-01 -3.019885114607E-01 -2.197246732348E-01
C21  2.357080959222E-01 -2.664470653362E-02  5.560734964571E-02
C22 -2.357080959222E-01  2.664470653362E-02 -5.560734964571E-02
C23  3.908637078959E-01 -4.938003887924E-02 -6.793495008247E-03
C24 -3.908637078959E-01  4.938003887924E-02  6.793495008247E-03
C25 -3.410294946034E-01  1.652686554848E-01  8.176054832802E-02
C26  3.410294946034E-01 -1.652686554848E-01 -8.176054832802E-02
C27 -4.589138232380E-01 -1.077506256711E-01  3.090368199177E-01
C28  4.589138232380E-01  1.077506256711E-01 -3.090368199177E-01
C29 -4.134808708271E-01 -6.504288829735E-02  3.923352814129E-01
C30  4.134808708271E-01  6.504288829735E-02 -3.923352814129E-01
C31 -2.170222548526E-01 -1.154633635359E-01  4.287711066134E-01
C32  2.170222548526E-01  1.154633635359E-01 -4.287711066134E-01
C33 -6.969434677622E-02 -2.040086029953E-01  3.805422472718E-01
C34  6.969434677622E-02  2.040086029953E-01 -3.805422472718E-01
C35 -1.098611600796E-01 -2.516217314582E-01  2.926025127881E-01
C36  1.098611600796E-01  2.516217314582E-01 -2.926025127881E-01
C37 -3.108857179061E-01 -2.031693757516E-01  2.560284629075E-01
C38  3.108857179061E-01  2.031693757516E-01 -2.560284629075E-01
C39 -3.537557206197E-01 -2.471607937010E-01  1.711412020066E-01
C40  3.537557206197E-01  2.471607937010E-01 -1.711412020066E-01
C41 -2.059476655012E-01 -3.394257284398E-01  1.189273648375E-01
C42  2.059476655012E-01  3.394257284398E-01 -1.189273648375E-01
C43 -4.502971145169E-03 -3.882046840343E-01  1.555971513952E-01
C44  4.502971145169E-03  3.882046840343E-01 -1.555971513952E-01
C45  3.670907634971E-02 -3.423563778853E-01  2.423076117213E-01
C46 -3.670907634971E-02  3.423563778853E-01 -2.423076117213E-01
C47 -2.482538335085E-01 -3.840791814237E-01  3.332586874105E-02
C48  2.482538335085E-01  3.840791814237E-01 -3.332586874105E-02
C49 -1.008604316028E-01 -4.756275480158E-01 -1.834578871794E-02
C50  1.008604316028E-01  4.756275480158E-01  1.834578871794E-02
C51  1.426233455325E-01 -4.792326265164E-01  1.044453706905E-01
C52 -1.426233455325E-01  4.792326265164E-01 -1.044453706905E-01
H53 -1.357375664212E-01  1.686098715211E-01  3.219491303378E-01
H54  1.357375664212E-01 -1.686098715211E-01 -3.219491303378E-01
H55 -3.714826614738E-02  3.644346596166E-01  4.543443112584E-01
H56  3.714826614738E-02 -3.644346596166E-01 -4.543443112584E-01
H57  3.365571330033E-01 -4.621662993889E-01  4.773861917912E-01
H58 -3.365571330033E-01  4.621662993889E-01 -4.773861917912E-01
H59 -3.866056181753E-01 -4.906154873065E-01  3.693906000684E-01
H60  3.866056181753E-01  4.906154873065E-01 -3.693906000684E-01
H61 -3.228549365271E-02  3.648646504006E-02  1.832881900135E-01
H62  3.228549365271E-02 -3.648646504006E-02 -1.832881900135E-01
H63 -2.824135399581E-01  3.757680614956E-01  2.299994084273E-01
H64  2.824135399581E-01 -3.757680614956E-01 -2.299994084273E-01
H65  7.250463259955E-02 -1.010545387783E-01  4.564318310595E-02
H66 -7.250463259955E-02  1.010545387783E-01 -4.564318310595E-02
H67 -1.777093694807E-01  2.393943731531E-01  9.184971509540E-02
H68  1.777093694807E-01 -2.393943731531E-01 -9.184971509540E-02
H69  3.919478765936E-01 -6.916399927532E-02  2.811010835874E-01
H70 -3.919478765936E-01  6.916399927532E-02 -2.811010835874E-01
H71  4.745892147352E-01  1.191198209538E-02  4.309737551148E-01
H72 -4.745892147352E-01 -1.191198209538E-02 -4.309737551148E-01
H73 -1.827448745212E-01 -8.089083178065E-02  4.954331616617E-01
H74  1.827448745212E-01  8.089083178065E-02 -4.954331616617E-01
H75  8.268556365040E-02 -2.394464786200E-01  4.074145709903E-01
H76 -8.268556365040E-02  2.394464786200E-01 -4.074145709903E-01
H77  4.955658963438E-01 -2.100827619836E-01  1.436468360542E-01
H78 -4.955658963438E-01  2.100827619836E-01 -1.436468360542E-01
H79  1.871351595864E-01 -3.795197825051E-01  2.699455507414E-01
H80 -1.871351595864E-01  3.795197825051E-01 -2.699455507414E-01
H81 -3.991228945297E-01 -3.473053887220E-01  5.864198999387E-03
H82  3.991228945297E-01  3.473053887220E-01 -5.864198999387E-03
H83  2.933347860224E-01  4.838991029373E-01  1.319756645483E-01
H84 -2.933347860224E-01 -4.838991029373E-01 -1.319756645483E-01


#===END

data_OPT_STEP_41

_symmetry_space_group_name_H-M 'P 1'
_cell_length_a      6.10400179
_cell_length_b      7.23817687
_cell_length_c     16.07884523
_cell_angle_alpha   96.519207
_cell_angle_beta   90.949515
_cell_angle_gamma   95.728430

loop_
_atom_site_label
_atom_site_fract_x
_atom_site_fract_y
_atom_site_fract_z
C1  2.685175980860E-02  2.433577069178E-01  3.322821723798E-01
C2 -2.685175980860E-02 -2.433577069178E-01 -3.322821723798E-01
C3  8.178220019861E-02  3.522627481913E-01  4.053211948121E-01
C4 -8.178220019861E-02 -3.522627481913E-01 -4.053211948121E-01
C5  2.961696630417E-01  4.496598186056E-01  4.188250067436E-01
C6 -2.961696630417E-01 -4.496598186056E-01 -4.188250067436E-01
C7  4.503220767853E-01  4.345373832669E-01  3.591672174704E-01
C8 -4.503220767853E-01 -4.345373832669E-01 -3.591672174704E-01
C9  4.005479048064E-01  3.209227363507E-01  2.813156787568E-01
C10 -4.005479048064E-01 -3.209227363507E-01 -2.813156787568E-01
C11  1.826707059007E-01  2.231996080249E-01  2.675456533134E-01
C12 -1.826707059007E-01 -2.231996080249E-01 -2.675456533134E-01
C13  1.308508582348E-01  1.108469054067E-01  1.932891312268E-01
C14 -1.308508582348E-01 -1.108469054067E-01 -1.932891312268E-01
C15  2.861243378144E-01  8.852562685225E-02  1.300915945300E-01
C16 -2.861243378144E-01 -8.852562685225E-02 -1.300915945300E-01
C17 -4.957251828416E-01  1.869852986506E-01  1.437168975649E-01
C18  4.957251828416E-01 -1.869852986506E-01 -1.437168975649E-01
C19 -4.458686989936E-01  3.018632193760E-01  2.197096162147E-01
C20  4.458686989936E-01 -3.018632193760E-01 -2.197096162147E-01
C21  2.356604691518E-01 -2.664859493779E-02  5.561983771210E-02
C22 -2.356604691518E-01  2.664859493779E-02 -5.561983771210E-02
C23  3.908495008991E-01 -4.937908930164E-02 -6.783240185774E-03
C24 -3.908495008991E-01  4.937908930164E-02  6.783240185774E-03
C25 -3.410047409172E-01  1.652314143656E-01  8.174130238658E-02
C26  3.410047409172E-01 -1.652314143656E-01 -8.174130238658E-02
C27 -4.589780229151E-01 -1.078644751221E-01  3.090302303783E-01
C28  4.589780229151E-01  1.078644751221E-01 -3.090302303783E-01
C29 -4.135509137425E-01 -6.519704908973E-02  3.923268402666E-01
C30  4.135509137425E-01  6.519704908973E-02 -3.923268402666E-01
C31 -2.170687447614E-01 -1.156249032496E-01  4.287604524257E-01
C32  2.170687447614E-01  1.156249032496E-01 -4.287604524257E-01
C33 -6.972837648297E-02 -2.041565033588E-01  3.805320659458E-01
C34  6.972837648297E-02  2.041565033588E-01 -3.805320659458E-01
C35 -1.098807346350E-01 -2.517151389934E-01  2.925938029025E-01
C36  1.098807346350E-01  2.517151389934E-01 -2.925938029025E-01
C37 -3.109197905507E-01 -2.032439279405E-01  2.560211556529E-01
C38  3.109197905507E-01  2.032439279405E-01 -2.560211556529E-01
C39 -3.538108070160E-01 -2.472339025553E-01  1.711382053585E-01
C40  3.538108070160E-01  2.472339025553E-01 -1.711382053585E-01
C41 -2.059669973015E-01 -3.394541296665E-01  1.189234108044E-01
C42  2.059669973015E-01  3.394541296665E-01 -1.189234108044E-01
C43 -4.500437344636E-03 -3.882397402874E-01  1.555914397866E-01
C44  4.500437344636E-03  3.882397402874E-01 -1.555914397866E-01
C45  3.674126061254E-02 -3.423788389950E-01  2.422968184497E-01
C46 -3.674126061254E-02  3.423788389950E-01 -2.422968184497E-01
C47 -2.482765621162E-01 -3.840850600424E-01  3.332485491580E-02
C48  2.482765621162E-01  3.840850600424E-01 -3.332485491580E-02
C49 -1.008569853824E-01 -4.756043933625E-01 -1.834620609065E-02
C50  1.008569853824E-01  4.756043933625E-01  1.834620609065E-02
C51  1.426304726290E-01 -4.792672556326E-01  1.044420769821E-01
C52 -1.426304726290E-01  4.792672556326E-01 -1.044420769821E-01
H53 -1.358791272730E-01  1.685968910894E-01  3.219517973079E-01
H54  1.358791272730E-01 -1.685968910894E-01 -3.219517973079E-01
H55 -3.731476606390E-02  3.644251368019E-01  4.543105688882E-01
H56  3.731476606390E-02 -3.644251368019E-01 -4.543105688882E-01
H57  3.365403359770E-01 -4.623358053378E-01  4.773501062609E-01
H58 -3.365403359770E-01  4.623358053378E-01 -4.773501062609E-01
H59 -3.865391337930E-01 -4.908668240586E-01  3.693692098418E-01
H60  3.865391337930E-01  4.908668240586E-01 -3.693692098418E-01
H61 -3.243356360530E-02  3.655242780261E-02  1.832826839158E-01
H62  3.243356360530E-02 -3.655242780261E-02 -1.832826839158E-01
H63 -2.823636459644E-01  3.756343309892E-01  2.299698395912E-01
H64  2.823636459644E-01 -3.756343309892E-01 -2.299698395912E-01
H65  7.243160301506E-02 -1.010478120424E-01  4.566755783450E-02
H66 -7.243160301506E-02  1.010478120424E-01 -4.566755783450E-02
H67 -1.776585325199E-01  2.393470308558E-01  9.181818602265E-02
H68  1.776585325199E-01 -2.393470308558E-01 -9.181818602265E-02
H69  3.918695923727E-01 -6.926663547325E-02  2.810964462443E-01
H70 -3.918695923727E-01  6.926663547325E-02 -2.810964462443E-01
H71  4.745129404184E-01  1.175418650623E-02  4.309637941508E-01
H72 -4.745129404184E-01 -1.175418650623E-02 -4.309637941508E-01
H73 -1.827871964266E-01 -8.107694591648E-02  4.954198829338E-01
H74  1.827871964266E-01  8.107694591648E-02 -4.954198829338E-01
H75  8.267075982508E-02 -2.395958194293E-01  4.074032027682E-01
H76 -8.267075982508E-02  2.395958194293E-01 -4.074032027682E-01
H77  4.954709514324E-01 -2.101821964830E-01  1.436484185948E-01
H78 -4.954709514324E-01  2.101821964830E-01 -1.436484185948E-01
H79  1.872128730835E-01 -3.795108167890E-01  2.699292925685E-01
H80 -1.872128730835E-01  3.795108167890E-01 -2.699292925685E-01
H81 -3.991644538915E-01 -3.473058950060E-01  5.865159073133E-03
H82  3.991644538915E-01  3.473058950060E-01 -5.865159073133E-03
H83  2.933678758346E-01  4.838686336709E-01  1.319693251977E-01
H84 -2.933678758346E-01 -4.838686336709E-01 -1.319693251977E-01


#===END

data_OPT_STEP_42

_symmetry_space_group_name_H-M 'P 1'
_cell_length_a      6.10435446
_cell_length_b      7.23805259
_cell_length_c     16.07887202
_cell_angle_alpha   96.523702
_cell_angle_beta   90.954276
_cell_angle_gamma   95.729411

loop_
_atom_site_label
_atom_site_fract_x
_atom_site_fract_y
_atom_site_fract_z
C1  2.687719899854E-02  2.433494181009E-01  3.322768269899E-01
C2 -2.687719899854E-02 -2.433494181009E-01 -3.322768269899E-01
C3  8.179885598207E-02  3.522758899054E-01  4.053174443379E-01
C4 -8.179885598207E-02 -3.522758899054E-01 -4.053174443379E-01
C5  2.961619807619E-01  4.497084353011E-01  4.188247749523E-01
C6 -2.961619807619E-01 -4.497084353011E-01 -4.188247749523E-01
C7  4.503088208867E-01  4.345791490051E-01  3.591726588955E-01
C8 -4.503088208867E-01 -4.345791490051E-01 -3.591726588955E-01
C9  4.005482319463E-01  3.209354000228E-01  2.813215602854E-01
C10 -4.005482319463E-01 -3.209354000228E-01 -2.813215602854E-01
C11  1.826818133147E-01  2.232031264241E-01  2.675423001712E-01
C12 -1.826818133147E-01 -2.232031264241E-01 -2.675423001712E-01
C13  1.308536209902E-01  1.108644307783E-01  1.932755932012E-01
C14 -1.308536209902E-01 -1.108644307783E-01 -1.932755932012E-01
C15  2.861228533516E-01  8.854164442475E-02  1.300835600451E-01
C16 -2.861228533516E-01 -8.854164442475E-02 -1.300835600451E-01
C17 -4.957398544129E-01  1.870150616344E-01  1.437171640695E-01
C18  4.957398544129E-01 -1.870150616344E-01 -1.437171640695E-01
C19 -4.458778905717E-01  3.018821058966E-01  2.197191212815E-01
C20  4.458778905717E-01 -3.018821058966E-01 -2.197191212815E-01
C21  2.356744239171E-01 -2.665928896331E-02  5.561130600763E-02
C22 -2.356744239171E-01  2.665928896331E-02 -5.561130600763E-02
C23  3.908627691385E-01 -4.939654835460E-02 -6.784760674918E-03
C24 -3.908627691385E-01  4.939654835460E-02  6.784760674918E-03
C25 -3.410247968793E-01  1.652616411889E-01  8.174662387343E-02
C26  3.410247968793E-01 -1.652616411889E-01 -8.174662387343E-02
C27 -4.589269869808E-01 -1.078268525196E-01  3.090247808207E-01
C28  4.589269869808E-01  1.078268525196E-01 -3.090247808207E-01
C29 -4.135063789150E-01 -6.516484068789E-02  3.923245069553E-01
C30  4.135063789150E-01  6.516484068789E-02 -3.923245069553E-01
C31 -2.170651648792E-01 -1.156341442561E-01  4.287655208552E-01
C32  2.170651648792E-01  1.156341442561E-01 -4.287655208552E-01
C33 -6.973572022655E-02 -2.041690745425E-01  3.805388336828E-01
C34  6.973572022655E-02  2.041690745425E-01 -3.805388336828E-01
C35 -1.098783808765E-01 -2.517148237876E-01  2.925972080836E-01
C36  1.098783808765E-01  2.517148237876E-01 -2.925972080836E-01
C37 -3.108912239728E-01 -2.032257580220E-01  2.560188619829E-01
C38  3.108912239728E-01  2.032257580220E-01 -2.560188619829E-01
C39 -3.537809941906E-01 -2.472187543301E-01  1.711335086689E-01
C40  3.537809941906E-01  2.472187543301E-01 -1.711335086689E-01
C41 -2.059481095295E-01 -3.394418721109E-01  1.189211707048E-01
C42  2.059481095295E-01  3.394418721109E-01 -1.189211707048E-01
C43 -4.480125383793E-03 -3.882098928950E-01  1.555925827520E-01
C44  4.480125383793E-03  3.882098928950E-01 -1.555925827520E-01
C45  3.675598156641E-02 -3.423521326956E-01  2.423006082854E-01
C46 -3.675598156641E-02  3.423521326956E-01 -2.423006082854E-01
C47 -2.482621760558E-01 -3.840829411560E-01  3.332047140036E-02
C48  2.482621760558E-01  3.840829411560E-01 -3.332047140036E-02
C49 -1.008578159739E-01 -4.756134636373E-01 -1.834789239020E-02
C50  1.008578159739E-01  4.756134636373E-01  1.834789239020E-02
C51  1.426378657805E-01 -4.792457508405E-01  1.044457314079E-01
C52 -1.426378657805E-01  4.792457508405E-01 -1.044457314079E-01
H53 -1.358402582372E-01  1.685742780191E-01  3.219391896081E-01
H54  1.358402582372E-01 -1.685742780191E-01 -3.219391896081E-01
H55 -3.729542150810E-02  3.644453632939E-01  4.543009715617E-01
H56  3.729542150810E-02 -3.644453632939E-01 -4.543009715617E-01
H57  3.365413658912E-01 -4.622828479182E-01  4.773540906476E-01
H58 -3.365413658912E-01  4.622828479182E-01 -4.773540906476E-01
H59 -3.865622925313E-01 -4.908112465698E-01  3.693825031925E-01
H60  3.865622925313E-01  4.908112465698E-01 -3.693825031925E-01
H61 -3.242380397397E-02  3.656804668124E-02  1.832586175167E-01
H62  3.242380397397E-02 -3.656804668124E-02 -1.832586175167E-01
H63 -2.823992395712E-01  3.756942586975E-01  2.299825446629E-01
H64  2.823992395712E-01 -3.756942586975E-01 -2.299825446629E-01
H65  7.246010177530E-02 -1.010739896675E-01  4.565098283885E-02
H66 -7.246010177530E-02  1.010739896675E-01 -4.565098283885E-02
H67 -1.776921473672E-01  2.393857136896E-01  9.183358693715E-02
H68  1.776921473672E-01 -2.393857136896E-01 -9.183358693715E-02
H69  3.919314035281E-01 -6.923247385491E-02  2.810870574956E-01
H70 -3.919314035281E-01  6.923247385491E-02 -2.810870574956E-01
H71  4.745750043133E-01  1.180679056441E-02  4.309586908640E-01
H72 -4.745750043133E-01 -1.180679056441E-02 -4.309586908640E-01
H73 -1.827935766723E-01 -8.108957302211E-02  4.954281482211E-01
H74  1.827935766723E-01  8.108957302211E-02 -4.954281482211E-01
H75  8.266414699590E-02 -2.395919452676E-01  4.074093263346E-01
H76 -8.266414699590E-02  2.395919452676E-01 -4.074093263346E-01
H77  4.955106481039E-01 -2.101719768197E-01  1.436392488964E-01
H78 -4.955106481039E-01  2.101719768197E-01 -1.436392488964E-01
H79  1.872120228071E-01 -3.794810609933E-01  2.699390511180E-01
H80 -1.872120228071E-01  3.794810609933E-01 -2.699390511180E-01
H81 -3.991313783137E-01 -3.472991874329E-01  5.855469040157E-03
H82  3.991313783137E-01  3.472991874329E-01 -5.855469040157E-03
H83  2.933521234897E-01  4.838824429790E-01  1.319794943837E-01
H84 -2.933521234897E-01 -4.838824429790E-01 -1.319794943837E-01


#===END

data_OPT_STEP_43

_symmetry_space_group_name_H-M 'P 1'
_cell_length_a      6.10529650
_cell_length_b      7.23794142
_cell_length_c     16.07814883
_cell_angle_alpha   96.529417
_cell_angle_beta   90.965587
_cell_angle_gamma   95.733225

loop_
_atom_site_label
_atom_site_fract_x
_atom_site_fract_y
_atom_site_fract_z
C1  2.691874200457E-02  2.433497034302E-01  3.322568201846E-01
C2 -2.691874200457E-02 -2.433497034302E-01 -3.322568201846E-01
C3  8.181516408664E-02  3.523161831851E-01  4.053016262774E-01
C4 -8.181516408664E-02 -3.523161831851E-01 -4.053016262774E-01
C5  2.961370229687E-01  4.497888004754E-01  4.188247917772E-01
C6 -2.961370229687E-01 -4.497888004754E-01 -4.188247917772E-01
C7  4.502775820820E-01  4.346397022229E-01  3.591879608609E-01
C8 -4.502775820820E-01 -4.346397022229E-01 -3.591879608609E-01
C9  4.005388083869E-01  3.209619613636E-01  2.813316403745E-01
C10 -4.005388083869E-01 -3.209619613636E-01 -2.813316403745E-01
C11  1.827090475871E-01  2.231992025348E-01  2.675343352728E-01
C12 -1.827090475871E-01 -2.231992025348E-01 -2.675343352728E-01
C13  1.308980958998E-01  1.108362542051E-01  1.932594956011E-01
C14 -1.308980958998E-01 -1.108362542051E-01 -1.932594956011E-01
C15  2.861445408401E-01  8.853262471940E-02  1.300747015614E-01
C16 -2.861445408401E-01 -8.853262471940E-02 -1.300747015614E-01
C17 -4.957507917578E-01  1.870307803416E-01  1.437283953857E-01
C18  4.957507917578E-01 -1.870307803416E-01 -1.437283953857E-01
C19 -4.459017520091E-01  3.019113740651E-01  2.197403031481E-01
C20  4.459017520091E-01 -3.019113740651E-01 -2.197403031481E-01
C21  2.357026117792E-01 -2.666998578950E-02  5.558856412531E-02
C22 -2.357026117792E-01  2.666998578950E-02 -5.558856412531E-02
C23  3.908842504992E-01 -4.941685978977E-02 -6.792837891684E-03
C24 -3.908842504992E-01  4.941685978977E-02  6.792837891684E-03
C25 -3.410627872841E-01  1.653040511472E-01  8.176320465113E-02
C26  3.410627872841E-01 -1.653040511472E-01 -8.176320465113E-02
C27 -4.588978101145E-01 -1.078324581336E-01  3.090068990635E-01
C28  4.588978101145E-01  1.078324581336E-01 -3.090068990635E-01
C29 -4.134870514668E-01 -6.515704536522E-02  3.923152321807E-01
C30  4.134870514668E-01  6.515704536522E-02 -3.923152321807E-01
C31 -2.170469394309E-01 -1.155676843464E-01  4.287719772267E-01
C32  2.170469394309E-01  1.155676843464E-01 -4.287719772267E-01
C33 -6.974613440068E-02 -2.041136581169E-01  3.805547955821E-01
C34  6.974613440068E-02  2.041136581169E-01 -3.805547955821E-01
C35 -1.098929554149E-01 -2.516895840308E-01  2.926059826075E-01
C36  1.098929554149E-01  2.516895840308E-01 -2.926059826075E-01
C37 -3.108732074141E-01 -2.032184654416E-01  2.560089924134E-01
C38  3.108732074141E-01  2.032184654416E-01 -2.560089924134E-01
C39 -3.537445728678E-01 -2.472166040801E-01  1.711140589581E-01
C40  3.537445728678E-01  2.472166040801E-01 -1.711140589581E-01
C41 -2.059232048307E-01 -3.394292340424E-01  1.189108239680E-01
C42  2.059232048307E-01  3.394292340424E-01 -1.189108239680E-01
C43 -4.491198399177E-03 -3.881869625872E-01  1.556016300624E-01
C44  4.491198399177E-03  3.881869625872E-01 -1.556016300624E-01
C45  3.671872753293E-02 -3.423348943286E-01  2.423193743888E-01
C46 -3.671872753293E-02  3.423348943286E-01 -2.423193743888E-01
C47 -2.482200127058E-01 -3.840784368926E-01  3.330057324440E-02
C48  2.482200127058E-01  3.840784368926E-01 -3.330057324440E-02
C49 -1.008327714879E-01 -4.756091415970E-01 -1.835826446113E-02
C50  1.008327714879E-01  4.756091415970E-01  1.835826446113E-02
C51  1.426153009722E-01 -4.792140445264E-01  1.044637113236E-01
C52 -1.426153009722E-01  4.792140445264E-01 -1.044637113236E-01
H53 -1.357800060732E-01  1.685671431737E-01  3.219002186373E-01
H54  1.357800060732E-01 -1.685671431737E-01 -3.219002186373E-01
H55 -3.726587283182E-02  3.644807258860E-01  4.542770209016E-01
H56  3.726587283182E-02 -3.644807258860E-01 -4.542770209016E-01
H57  3.365406304443E-01 -4.622192863419E-01  4.773675581562E-01
H58 -3.365406304443E-01  4.622192863419E-01 -4.773675581562E-01
H59 -3.866074430433E-01 -4.907467066914E-01  3.694181188161E-01
H60  3.866074430433E-01  4.907467066914E-01 -3.694181188161E-01
H61 -3.233490682134E-02  3.648334043305E-02  1.832345447136E-01
H62  3.233490682134E-02 -3.648334043305E-02 -1.832345447136E-01
H63 -2.824655435402E-01  3.757764572377E-01  2.300141427444E-01
H64  2.824655435402E-01 -3.757764572377E-01 -2.300141427444E-01
H65  7.250532852300E-02 -1.010892147055E-01  4.560692450177E-02
H66 -7.250532852300E-02  1.010892147055E-01 -4.560692450177E-02
H67 -1.777567959704E-01  2.394441802724E-01  9.186883133293E-02
H68  1.777567959704E-01 -2.394441802724E-01 -9.186883133293E-02
H69  3.919881212423E-01 -6.924670334004E-02  2.810557030488E-01
H70 -3.919881212423E-01  6.924670334004E-02 -2.810557030488E-01
H71  4.746006813744E-01  1.180746889434E-02  4.309433931918E-01
H72 -4.746006813744E-01 -1.180746889434E-02 -4.309433931918E-01
H73 -1.827782337501E-01 -8.099753509593E-02  4.954403834209E-01
H74  1.827782337501E-01  8.099753509593E-02 -4.954403834209E-01
H75  8.264294156821E-02 -2.395110124386E-01  4.074311831882E-01
H76 -8.264294156821E-02  2.395110124386E-01 -4.074311831882E-01
H77  4.955773485614E-01 -2.101752837339E-01  1.436048299172E-01
H78 -4.955773485614E-01  2.101752837339E-01 -1.436048299172E-01
H79  1.871181446296E-01 -3.794892387691E-01  2.699759507772E-01
H80 -1.871181446296E-01  3.794892387691E-01 -2.699759507772E-01
H81 -3.990537057738E-01 -3.472967685304E-01  5.819957742207E-03
H82  3.990537057738E-01  3.472967685304E-01 -5.819957742207E-03
H83  2.933113238892E-01  4.839453305819E-01  1.320122678756E-01
H84 -2.933113238892E-01 -4.839453305819E-01 -1.320122678756E-01


#===END

data_OPT_STEP_44

_symmetry_space_group_name_H-M 'P 1'
_cell_length_a      6.10687593
_cell_length_b      7.23627603
_cell_length_c     16.07832315
_cell_angle_alpha   96.547798
_cell_angle_beta   90.984434
_cell_angle_gamma   95.735975

loop_
_atom_site_label
_atom_site_fract_x
_atom_site_fract_y
_atom_site_fract_z
C1  2.697034048674E-02  2.432983977739E-01  3.322192805427E-01
C2 -2.697034048674E-02 -2.432983977739E-01 -3.322192805427E-01
C3  8.183534772833E-02  3.523024751935E-01  4.052863121485E-01
C4 -8.183534772833E-02 -3.523024751935E-01 -4.052863121485E-01
C5  2.960972367307E-01  4.498316021124E-01  4.188547387851E-01
C6 -2.960972367307E-01 -4.498316021124E-01 -4.188547387851E-01
C7  4.501943560607E-01  4.347314150266E-01  3.592330399665E-01
C8 -4.501943560607E-01 -4.347314150266E-01 -3.592330399665E-01
C9  4.004824693259E-01  3.210262637478E-01  2.813531994977E-01
C10 -4.004824693259E-01 -3.210262637478E-01 -2.813531994977E-01
C11  1.827260380317E-01  2.231834243923E-01  2.675140243293E-01
C12 -1.827260380317E-01 -2.231834243923E-01 -2.675140243293E-01
C13  1.309394792730E-01  1.108013392069E-01  1.932123836227E-01
C14 -1.309394792730E-01 -1.108013392069E-01 -1.932123836227E-01
C15  2.861628941008E-01  8.851823082128E-02  1.300500534558E-01
C16 -2.861628941008E-01 -8.851823082128E-02 -1.300500534558E-01
C17 -4.958018078827E-01  1.870895892569E-01  1.437484279624E-01
C18  4.958018078827E-01 -1.870895892569E-01 -1.437484279624E-01
C19 -4.459940036271E-01  3.020173239182E-01  2.197792970321E-01
C20  4.459940036271E-01 -3.020173239182E-01 -2.197792970321E-01
C21  2.357635182876E-01 -2.673443833531E-02  5.554496817858E-02
C22 -2.357635182876E-01  2.673443833531E-02 -5.554496817858E-02
C23  3.909159067708E-01 -4.944843011205E-02 -6.816692409985E-03
C24 -3.909159067708E-01  4.944843011205E-02  6.816692409985E-03
C25 -3.411343929860E-01  1.653807110489E-01  8.180694923164E-02
C26  3.411343929860E-01 -1.653807110489E-01 -8.180694923164E-02
C27 -4.588522283769E-01 -1.077806035931E-01  3.089908829152E-01
C28  4.588522283769E-01  1.077806035931E-01 -3.089908829152E-01
C29 -4.134718958834E-01 -6.510491978064E-02  3.923112271376E-01
C30  4.134718958834E-01  6.510491978064E-02 -3.923112271376E-01
C31 -2.170973636016E-01 -1.155307372818E-01  4.287902747040E-01
C32  2.170973636016E-01  1.155307372818E-01 -4.287902747040E-01
C33 -6.978646031905E-02 -2.040322226448E-01  3.805788552746E-01
C34  6.978646031905E-02  2.040322226448E-01 -3.805788552746E-01
C35 -1.099117558513E-01 -2.516220864536E-01  2.926187905677E-01
C36  1.099117558513E-01  2.516220864536E-01 -2.926187905677E-01
C37 -3.108551781565E-01 -2.031796679430E-01  2.560017682443E-01
C38  3.108551781565E-01  2.031796679430E-01 -2.560017682443E-01
C39 -3.537133619223E-01 -2.472103856677E-01  1.710962848219E-01
C40  3.537133619223E-01  2.472103856677E-01 -1.710962848219E-01
C41 -2.059084258346E-01 -3.394215413120E-01  1.189020336832E-01
C42  2.059084258346E-01  3.394215413120E-01 -1.189020336832E-01
C43 -4.517588567439E-03 -3.881548786169E-01  1.556137013500E-01
C44  4.517588567439E-03  3.881548786169E-01 -1.556137013500E-01
C45  3.668564697943E-02 -3.422610012131E-01  2.423407069594E-01
C46 -3.668564697943E-02  3.422610012131E-01 -2.423407069594E-01
C47 -2.481826495173E-01 -3.840915532650E-01  3.328075335955E-02
C48  2.481826495173E-01  3.840915532650E-01 -3.328075335955E-02
C49 -1.008123725741E-01 -4.756217201301E-01 -1.836868126511E-02
C50  1.008123725741E-01  4.756217201301E-01  1.836868126511E-02
C51  1.425649510938E-01 -4.791911762561E-01  1.044855807498E-01
C52 -1.425649510938E-01  4.791911762561E-01 -1.044855807498E-01
H53 -1.356850941885E-01  1.684723619045E-01  3.218311543611E-01
H54  1.356850941885E-01 -1.684723619045E-01 -3.218311543611E-01
H55 -3.721479499170E-02  3.644437636646E-01  4.542505313885E-01
H56  3.721479499170E-02 -3.644437636646E-01 -4.542505313885E-01
H57  3.364982579581E-01 -4.621686462589E-01  4.774173474149E-01
H58 -3.364982579581E-01  4.621686462589E-01 -4.774173474149E-01
H59 -3.867453798015E-01 -4.905898747632E-01  3.694904740125E-01
H60  3.867453798015E-01  4.905898747632E-01 -3.694904740125E-01
H61 -3.224986689810E-02  3.640464791001E-02  1.831547335359E-01
H62  3.224986689810E-02 -3.640464791001E-02 -1.831547335359E-01
H63 -2.825986100310E-01  3.759197937445E-01  2.300886554891E-01
H64  2.825986100310E-01 -3.759197937445E-01 -2.300886554891E-01
H65  7.261513291303E-02 -1.012069621083E-01  4.553270766733E-02
H66 -7.261513291303E-02  1.012069621083E-01 -4.553270766733E-02
H67 -1.778727005530E-01  2.395618712793E-01  9.194654745933E-02
H68  1.778727005530E-01 -2.395618712793E-01 -9.194654745933E-02
H69  3.920837072811E-01 -6.917910044793E-02  2.810233360857E-01
H70 -3.920837072811E-01  6.917910044793E-02 -2.810233360857E-01
H71  4.746266524197E-01  1.185286973723E-02  4.309347208135E-01
H72 -4.746266524197E-01 -1.185286973723E-02 -4.309347208135E-01
H73 -1.828912891233E-01 -8.101044038148E-02  4.954707803841E-01
H74  1.828912891233E-01  8.101044038148E-02 -4.954707803841E-01
H75  8.258582997030E-02 -2.394016798949E-01  4.074641365251E-01
H76 -8.258582997030E-02  2.394016798949E-01 -4.074641365251E-01
H77  4.956368040649E-01 -2.101876652150E-01  1.435715957437E-01
H78 -4.956368040649E-01  2.101876652150E-01 -1.435715957437E-01
H79  1.870668230378E-01 -3.793785416326E-01  2.700120311915E-01
H80 -1.870668230378E-01  3.793785416326E-01 -2.700120311915E-01
H81 -3.989803103594E-01 -3.473194009155E-01  5.783670159857E-03
H82  3.989803103594E-01  3.473194009155E-01 -5.783670159857E-03
H83  2.932292624982E-01  4.839857577955E-01  1.320503235402E-01
H84 -2.932292624982E-01 -4.839857577955E-01 -1.320503235402E-01


#===END

data_OPT_STEP_45

_symmetry_space_group_name_H-M 'P 1'
_cell_length_a      6.10562903
_cell_length_b      7.23777358
_cell_length_c     16.07813980
_cell_angle_alpha   96.534258
_cell_angle_beta   90.971243
_cell_angle_gamma   95.734064

loop_
_atom_site_label
_atom_site_fract_x
_atom_site_fract_y
_atom_site_fract_z
C1  2.692605609398E-02  2.433384594766E-01  3.322450753718E-01
C2 -2.692605609398E-02 -2.433384594766E-01 -3.322450753718E-01
C3  8.181341295300E-02  3.523154740710E-01  4.052947636651E-01
C4 -8.181341295300E-02 -3.523154740710E-01 -4.052947636651E-01
C5  2.961230041722E-01  4.497965554425E-01  4.188305173066E-01
C6 -2.961230041722E-01 -4.497965554425E-01 -4.188305173066E-01
C7  4.502561339559E-01  4.346546718276E-01  3.591991748635E-01
C8 -4.502561339559E-01 -4.346546718276E-01 -3.591991748635E-01
C9  4.005237867985E-01  3.209730353187E-01  2.813368181937E-01
C10 -4.005237867985E-01 -3.209730353187E-01 -2.813368181937E-01
C11  1.827096932017E-01  2.231946441503E-01  2.675278583100E-01
C12 -1.827096932017E-01 -2.231946441503E-01 -2.675278583100E-01
C13  1.309021250470E-01  1.108326522259E-01  1.932448486921E-01
C14 -1.309021250470E-01 -1.108326522259E-01 -1.932448486921E-01
C15  2.861455681638E-01  8.853150019354E-02  1.300670275331E-01
C16 -2.861455681638E-01 -8.853150019354E-02 -1.300670275331E-01
C17 -4.957661193246E-01  1.870477007710E-01  1.437323926263E-01
C18  4.957661193246E-01 -1.870477007710E-01 -1.437323926263E-01
C19 -4.459269707810E-01  3.019374750567E-01  2.197496067605E-01
C20  4.459269707810E-01 -3.019374750567E-01 -2.197496067605E-01
C21  2.357167976095E-01 -2.668718525569E-02  5.557703125020E-02
C22 -2.357167976095E-01  2.668718525569E-02 -5.557703125020E-02
C23  3.908932022804E-01 -4.942722123774E-02 -6.798414180716E-03
C24 -3.908932022804E-01  4.942722123774E-02  6.798414180716E-03
C25 -3.410831389368E-01  1.653276220675E-01  8.177328465094E-02
C26  3.410831389368E-01 -1.653276220675E-01 -8.177328465094E-02
C27 -4.588864390635E-01 -1.078197002882E-01  3.090000452886E-01
C28  4.588864390635E-01  1.078197002882E-01 -3.090000452886E-01
C29 -4.134813414738E-01 -6.514312014055E-02  3.923119282546E-01
C30  4.134813414738E-01  6.514312014055E-02 -3.923119282546E-01
C31 -2.170598146148E-01 -1.155599703530E-01  4.287760450452E-01
C32  2.170598146148E-01  1.155599703530E-01 -4.287760450452E-01
C33 -6.975542626462E-02 -2.040917290971E-01  3.805609047151E-01
C34  6.975542626462E-02  2.040917290971E-01 -3.805609047151E-01
C35 -1.098993533432E-01 -2.516723297624E-01  2.926089234587E-01
C36  1.098993533432E-01  2.516723297624E-01 -2.926089234587E-01
C37 -3.108710418347E-01 -2.032108742014E-01  2.560053860982E-01
C38  3.108710418347E-01  2.032108742014E-01 -2.560053860982E-01
C39 -3.537416843602E-01 -2.472213236291E-01  1.711073642673E-01
C40  3.537416843602E-01  2.472213236291E-01 -1.711073642673E-01
C41 -2.059240425486E-01 -3.394327300845E-01  1.189075239318E-01
C42  2.059240425486E-01  3.394327300845E-01 -1.189075239318E-01
C43 -4.502010525784E-03 -3.881827150195E-01  1.556052330428E-01
C44  4.502010525784E-03  3.881827150195E-01 -1.556052330428E-01
C45  3.671080225248E-02 -3.423127750822E-01  2.423253969758E-01
C46 -3.671080225248E-02  3.423127750822E-01 -2.423253969758E-01
C47 -2.482123460576E-01 -3.840846276052E-01  3.329362669680E-02
C48  2.482123460576E-01  3.840846276052E-01 -3.329362669680E-02
C49 -1.008261516279E-01 -4.756109138063E-01 -1.836185316938E-02
C50  1.008261516279E-01  4.756109138063E-01  1.836185316938E-02
C51  1.425975092846E-01 -4.792135658960E-01  1.044710645430E-01
C52 -1.425975092846E-01  4.792135658960E-01 -1.044710645430E-01
H53 -1.357633922179E-01  1.685479021187E-01  3.218786945595E-01
H54  1.357633922179E-01 -1.685479021187E-01 -3.218786945595E-01
H55 -3.726181833223E-02  3.644770769967E-01  4.542660569289E-01
H56  3.726181833223E-02 -3.644770769967E-01 -4.542660569289E-01
H57  3.365242020529E-01 -4.622049338536E-01  4.773774287913E-01
H58 -3.365242020529E-01  4.622049338536E-01 -4.773774287913E-01
H59 -3.866437060331E-01 -4.907134940065E-01  3.694368315228E-01
H60  3.866437060331E-01  4.907134940065E-01 -3.694368315228E-01
H61 -3.232182760519E-02  3.647211860079E-02  1.832094191372E-01
H62  3.232182760519E-02 -3.647211860079E-02 -1.832094191372E-01
H63 -2.825002598048E-01  3.758105132279E-01  2.300344820964E-01
H64  2.825002598048E-01 -3.758105132279E-01 -2.300344820964E-01
H65  7.253240628370E-02 -1.011211828651E-01  4.558650677939E-02
H66 -7.253240628370E-02  1.011211828651E-01 -4.558650677939E-02
H67 -1.777906376359E-01  2.394812287118E-01  9.188824272470E-02
H68  1.777906376359E-01 -2.394812287118E-01 -9.188824272470E-02
H69  3.920161572246E-01 -6.922605088685E-02  2.810430103824E-01
H70 -3.920161572246E-01  6.922605088685E-02 -2.810430103824E-01
H71  4.746103189766E-01  1.182044458674E-02  4.309385377457E-01
H72 -4.746103189766E-01 -1.182044458674E-02 -4.309385377457E-01
H73 -1.828132887489E-01 -8.100924420779E-02  4.954487683947E-01
H74  1.828132887489E-01  8.100924420779E-02 -4.954487683947E-01
H75  8.263310918343E-02 -2.394767846954E-01  4.074388513131E-01
H76 -8.263310918343E-02  2.394767846954E-01 -4.074388513131E-01
H77  4.955872328306E-01 -2.101873688585E-01  1.435925886634E-01
H78 -4.955872328306E-01  2.101873688585E-01 -1.435925886634E-01
H79  1.871078881133E-01 -3.794506485392E-01  2.699873294973E-01
H80 -1.871078881133E-01  3.794506485392E-01 -2.699873294973E-01
H81 -3.990340891924E-01 -3.473047449063E-01  5.806784213925E-03
H82  3.990340891924E-01  3.473047449063E-01 -5.806784213925E-03
H83  2.932825803902E-01  4.839503420102E-01  1.320259155336E-01
H84 -2.932825803902E-01 -4.839503420102E-01 -1.320259155336E-01


#===END

data_OPT_STEP_46

_symmetry_space_group_name_H-M 'P 1'
_cell_length_a      6.10652939
_cell_length_b      7.23739625
_cell_length_c     16.07772621
_cell_angle_alpha   96.535702
_cell_angle_beta   90.976815
_cell_angle_gamma   95.737133

loop_
_atom_site_label
_atom_site_fract_x
_atom_site_fract_y
_atom_site_fract_z
C1  2.700702048890E-02  2.434097561620E-01  3.322334341958E-01
C2 -2.700702048890E-02 -2.434097561620E-01 -3.322334341958E-01
C3  8.188554297982E-02  3.524155902170E-01  4.052831561353E-01
C4 -8.188554297982E-02 -3.524155902170E-01 -4.052831561353E-01
C5  2.961652442095E-01  4.499022575059E-01  4.188249615542E-01
C6 -2.961652442095E-01 -4.499022575059E-01 -4.188249615542E-01
C7  4.502766126369E-01  4.347456163352E-01  3.591980562771E-01
C8 -4.502766126369E-01 -4.347456163352E-01 -3.591980562771E-01
C9  4.005463810353E-01  3.210469298820E-01  2.813330554394E-01
C10 -4.005463810353E-01 -3.210469298820E-01 -2.813330554394E-01
C11  1.827562993290E-01  2.232684181166E-01  2.675161051639E-01
C12 -1.827562993290E-01 -2.232684181166E-01 -2.675161051639E-01
C13  1.309335804670E-01  1.109190637863E-01  1.932218835811E-01
C14 -1.309335804670E-01 -1.109190637863E-01 -1.932218835811E-01
C15  2.861627979285E-01  8.859051124311E-02  1.300534279833E-01
C16 -2.861627979285E-01 -8.859051124311E-02 -1.300534279833E-01
C17 -4.957771178050E-01  1.871170753599E-01  1.437243366194E-01
C18  4.957771178050E-01 -1.871170753599E-01 -1.437243366194E-01
C19 -4.459352252039E-01  3.020168172192E-01  2.197469929240E-01
C20  4.459352252039E-01 -3.020168172192E-01 -2.197469929240E-01
C21  2.357533478892E-01 -2.667729176784E-02  5.556834570758E-02
C22 -2.357533478892E-01  2.667729176784E-02 -5.556834570758E-02
C23  3.909139700260E-01 -4.944294831388E-02 -6.798435068316E-03
C24 -3.909139700260E-01  4.944294831388E-02  6.798435068316E-03
C25 -3.411167366965E-01  1.653844558532E-01  8.177032308594E-02
C26  3.411167366965E-01 -1.653844558532E-01 -8.177032308594E-02
C27 -4.588039635540E-01 -1.077254522054E-01  3.089799646748E-01
C28  4.588039635540E-01  1.077254522054E-01 -3.089799646748E-01
C29 -4.133968965983E-01 -6.502750545327E-02  3.922962857131E-01
C30  4.133968965983E-01  6.502750545327E-02 -3.922962857131E-01
C31 -2.170291270854E-01 -1.154619708431E-01  4.287733993871E-01
C32  2.170291270854E-01  1.154619708431E-01 -4.287733993871E-01
C33 -6.976703468580E-02 -2.040216237111E-01  3.805647363770E-01
C34  6.976703468580E-02  2.040216237111E-01 -3.805647363770E-01
C35 -1.098950554941E-01 -2.515943356692E-01  2.926071391880E-01
C36  1.098950554941E-01  2.515943356692E-01 -2.926071391880E-01
C37 -3.108028433958E-01 -2.031073095465E-01  2.559892744790E-01
C38  3.108028433958E-01  2.031073095465E-01 -2.559892744790E-01
C39 -3.536791380412E-01 -2.471617273597E-01  1.710870017474E-01
C40  3.536791380412E-01  2.471617273597E-01 -1.710870017474E-01
C41 -2.058882712808E-01 -3.393909750269E-01  1.188958072547E-01
C42  2.058882712808E-01  3.393909750269E-01 -1.188958072547E-01
C43 -4.492914375971E-03 -3.881121166433E-01  1.556058404199E-01
C44  4.492914375971E-03  3.881121166433E-01 -1.556058404199E-01
C45  3.670273154107E-02 -3.422293195775E-01  2.423308500484E-01
C46 -3.670273154107E-02  3.422293195775E-01 -2.423308500484E-01
C47 -2.481869403960E-01 -3.841022988967E-01  3.327856896270E-02
C48  2.481869403960E-01  3.841022988967E-01 -3.327856896270E-02
C49 -1.008199176318E-01 -4.756368219128E-01 -1.836769959654E-02
C50  1.008199176318E-01  4.756368219128E-01  1.836769959654E-02
C51  1.425867906940E-01 -4.791503669417E-01  1.044807775183E-01
C52 -1.425867906940E-01  4.791503669417E-01 -1.044807775183E-01
H53 -1.356543028001E-01  1.686002146528E-01  3.218586737484E-01
H54  1.356543028001E-01 -1.686002146528E-01 -3.218586737484E-01
H55 -3.717696022077E-02  3.645943230657E-01  4.542465925755E-01
H56  3.717696022077E-02 -3.645943230657E-01 -4.542465925755E-01
H57  3.365507672521E-01 -4.620494320769E-01  4.773680079898E-01
H58 -3.365507672521E-01  4.620494320769E-01 -4.773680079898E-01
H59 -3.866616041310E-01 -4.905847039369E-01  3.694403092465E-01
H60  3.866616041310E-01  4.905847039369E-01 -3.694403092465E-01
H61 -3.227143273427E-02  3.655559502123E-02  1.831721668444E-01
H62  3.227143273427E-02 -3.655559502123E-02 -1.831721668444E-01
H63 -2.825348614292E-01  3.759010077275E-01  2.300454241804E-01
H64  2.825348614292E-01 -3.759010077275E-01 -2.300454241804E-01
H65  7.260126482639E-02 -1.011383729144E-01  4.556953874519E-02
H66 -7.260126482639E-02  1.011383729144E-01 -4.556953874519E-02
H67 -1.778596724622E-01  2.395623028326E-01  9.189440296428E-02
H68  1.778596724622E-01 -2.395623028326E-01 -9.189440296428E-02
H69  3.921138231352E-01 -6.915888760523E-02  2.810140243162E-01
H70 -3.921138231352E-01  6.915888760523E-02 -2.810140243162E-01
H71  4.747074298045E-01  1.193197797222E-02  4.309205952085E-01
H72 -4.747074298045E-01 -1.193197797222E-02 -4.309205952085E-01
H73 -1.827939717473E-01 -8.089125218772E-02  4.954510840148E-01
H74  1.827939717473E-01  8.089125218772E-02 -4.954510840148E-01
H75  8.260215531112E-02 -2.394016933710E-01  4.074401941829E-01
H76 -8.260215531112E-02  2.394016933710E-01 -4.074401941829E-01
H77  4.956723883332E-01 -2.101500723298E-01  1.435596237902E-01
H78 -4.956723883332E-01  2.101500723298E-01 -1.435596237902E-01
H79  1.870721382298E-01 -3.793435199491E-01  2.700070315346E-01
H80 -1.870721382298E-01  3.793435199491E-01 -2.700070315346E-01
H81 -3.989805941989E-01 -3.473441832331E-01  5.777311289673E-03
H82  3.989805941989E-01  3.473441832331E-01 -5.777311289673E-03
H83  2.932473079159E-01  4.840453020723E-01  1.320504889306E-01
H84 -2.932473079159E-01 -4.840453020723E-01 -1.320504889306E-01


#===END

data_OPT_STEP_47

_symmetry_space_group_name_H-M 'P 1'
_cell_length_a      6.10577687
_cell_length_b      7.23778623
_cell_length_c     16.07820417
_cell_angle_alpha   96.534926
_cell_angle_beta   90.972474
_cell_angle_gamma   95.734687

loop_
_atom_site_label
_atom_site_fract_x
_atom_site_fract_y
_atom_site_fract_z
C1  2.694294304876E-02  2.433525180044E-01  3.322420192701E-01
C2 -2.694294304876E-02 -2.433525180044E-01 -3.322420192701E-01
C3  8.182589143267E-02  3.523394619423E-01  4.052900971551E-01
C4 -8.182589143267E-02 -3.523394619423E-01 -4.052900971551E-01
C5  2.961298788399E-01  4.498164409266E-01  4.188273736030E-01
C6 -2.961298788399E-01 -4.498164409266E-01 -4.188273736030E-01
C7  4.502608187093E-01  4.346659659224E-01  3.591981191537E-01
C8 -4.502608187093E-01 -4.346659659224E-01 -3.591981191537E-01
C9  4.005299606587E-01  3.209811118083E-01  2.813359554831E-01
C10 -4.005299606587E-01 -3.209811118083E-01 -2.813359554831E-01
C11  1.827169657540E-01  2.232113228435E-01  2.675240054419E-01
C12 -1.827169657540E-01 -2.232113228435E-01 -2.675240054419E-01
C13  1.309013906488E-01  1.108613174181E-01  1.932364759601E-01
C14 -1.309013906488E-01 -1.108613174181E-01 -1.932364759601E-01
C15  2.861448259003E-01  8.854974078002E-02  1.300622637273E-01
C16 -2.861448259003E-01 -8.854974078002E-02 -1.300622637273E-01
C17 -4.957715251901E-01  1.870653686330E-01  1.437288381278E-01
C18  4.957715251901E-01 -1.870653686330E-01 -1.437288381278E-01
C19 -4.459289403484E-01  3.019505876329E-01  2.197485976605E-01
C20  4.459289403484E-01 -3.019505876329E-01 -2.197485976605E-01
C21  2.357252854471E-01 -2.668650254362E-02  5.557550532182E-02
C22 -2.357252854471E-01  2.668650254362E-02 -5.557550532182E-02
C23  3.909001496279E-01 -4.943434054613E-02 -6.797122840446E-03
C24 -3.909001496279E-01  4.943434054613E-02  6.797122840446E-03
C25 -3.410937785665E-01  1.653441639247E-01  8.177076333239E-02
C26  3.410937785665E-01 -1.653441639247E-01 -8.177076333239E-02
C27 -4.588677799569E-01 -1.078000493928E-01  3.089945617900E-01
C28  4.588677799569E-01  1.078000493928E-01 -3.089945617900E-01
C29 -4.134545521867E-01 -6.511066051071E-02  3.923062308992E-01
C30  4.134545521867E-01  6.511066051071E-02 -3.923062308992E-01
C31 -2.170467978471E-01 -1.155334581965E-01  4.287728607277E-01
C32  2.170467978471E-01  1.155334581965E-01 -4.287728607277E-01
C33 -6.976133099930E-02 -2.040833275643E-01  3.805595849356E-01
C34  6.976133099930E-02  2.040833275643E-01 -3.805595849356E-01
C35 -1.099034158455E-01 -2.516603795633E-01  2.926070366918E-01
C36  1.099034158455E-01  2.516603795633E-01 -2.926070366918E-01
C37 -3.108509653212E-01 -2.031808297534E-01  2.560001523369E-01
C38  3.108509653212E-01  2.031808297534E-01 -2.560001523369E-01
C39 -3.537276276605E-01 -2.472078285044E-01  1.711019631063E-01
C40  3.537276276605E-01  2.472078285044E-01 -1.711019631063E-01
C41 -2.059177566048E-01 -3.394257633007E-01  1.189045531553E-01
C42  2.059177566048E-01  3.394257633007E-01 -1.189045531553E-01
C43 -4.502370797799E-03 -3.881692647607E-01  1.556045576017E-01
C44  4.502370797799E-03  3.881692647607E-01 -1.556045576017E-01
C45  3.670375490537E-02 -3.423002896495E-01  2.423254980348E-01
C46 -3.670375490537E-02  3.423002896495E-01 -2.423254980348E-01
C47 -2.482115801349E-01 -3.840964631289E-01  3.329052549215E-02
C48  2.482115801349E-01  3.840964631289E-01 -3.329052549215E-02
C49 -1.008253971875E-01 -4.756183271785E-01 -1.836286726728E-02
C50  1.008253971875E-01  4.756183271785E-01  1.836286726728E-02
C51  1.425934960843E-01 -4.792005565425E-01  1.044726836754E-01
C52 -1.425934960843E-01  4.792005565425E-01 -1.044726836754E-01
H53 -1.357389568032E-01  1.685566196388E-01  3.218724557037E-01
H54  1.357389568032E-01 -1.685566196388E-01 -3.218724557037E-01
H55 -3.725296581304E-02  3.645159300062E-01  4.542559748975E-01
H56  3.725296581304E-02 -3.645159300062E-01 -4.542559748975E-01
H57  3.365208026047E-01 -4.621581621621E-01  4.773702294739E-01
H58 -3.365208026047E-01  4.621581621621E-01 -4.773702294739E-01
H59 -3.866518775185E-01 -4.906871430795E-01  3.694370668943E-01
H60  3.866518775185E-01  4.906871430795E-01 -3.694370668943E-01
H61 -3.232002812519E-02  3.650414886317E-02  1.831944974705E-01
H62  3.232002812519E-02 -3.650414886317E-02 -1.831944974705E-01
H63 -2.825083293547E-01  3.758241121405E-01  2.300398098530E-01
H64  2.825083293547E-01 -3.758241121405E-01 -2.300398098530E-01
H65  7.255203291087E-02 -1.011324588856E-01  4.558214532487E-02
H66 -7.255203291087E-02  1.011324588856E-01 -4.558214532487E-02
H67 -1.778149403270E-01  2.395098303493E-01  9.188861068325E-02
H68  1.778149403270E-01 -2.395098303493E-01 -9.188861068325E-02
H69  3.920333638875E-01 -6.922233285593E-02  2.810357144108E-01
H70 -3.920333638875E-01  6.922233285593E-02 -2.810357144108E-01
H71  4.746405943359E-01  1.185283025707E-02  4.309322866227E-01
H72 -4.746405943359E-01 -1.185283025707E-02 -4.309322866227E-01
H73 -1.827987629825E-01 -8.096786312019E-02  4.954463791439E-01
H74  1.827987629825E-01  8.096786312019E-02 -4.954463791439E-01
H75  8.262601077812E-02 -2.394639308870E-01  4.074336372594E-01
H76 -8.262601077812E-02  2.394639308870E-01 -4.074336372594E-01
H77  4.956054008605E-01 -2.101840423996E-01  1.435835535722E-01
H78 -4.956054008605E-01  2.101840423996E-01 -1.435835535722E-01
H79  1.870921918880E-01 -3.794301994638E-01  2.699921077534E-01
H80 -1.870921918880E-01  3.794301994638E-01 -2.699921077534E-01
H81 -3.990251495069E-01 -3.473242488829E-01  5.799147691385E-03
H82  3.990251495069E-01  3.473242488829E-01 -5.799147691385E-03
H83  2.932699844673E-01  4.839728915657E-01  1.320325077552E-01
H84 -2.932699844673E-01 -4.839728915657E-01 -1.320325077552E-01


#===END

data_OPT_STEP_48

_symmetry_space_group_name_H-M 'P 1'
_cell_length_a      6.10596797
_cell_length_b      7.23771672
_cell_length_c     16.07827854
_cell_angle_alpha   96.535834
_cell_angle_beta   90.973183
_cell_angle_gamma   95.733483

loop_
_atom_site_label
_atom_site_fract_x
_atom_site_fract_y
_atom_site_fract_z
C1  2.696543082678E-02  2.433394638203E-01  3.322510738573E-01
C2 -2.696543082678E-02 -2.433394638203E-01 -3.322510738573E-01
C3  8.184414390199E-02  3.523270467314E-01  4.053022395718E-01
C4 -8.184414390199E-02 -3.523270467314E-01 -4.053022395718E-01
C5  2.961364454400E-01  4.498090470043E-01  4.188389716464E-01
C6 -2.961364454400E-01 -4.498090470043E-01 -4.188389716464E-01
C7  4.502508793782E-01  4.346773522636E-01  3.592020431206E-01
C8 -4.502508793782E-01 -4.346773522636E-01 -3.592020431206E-01
C9  4.005252294473E-01  3.209802174789E-01  2.813425415145E-01
C10 -4.005252294473E-01 -3.209802174789E-01 -2.813425415145E-01
C11  1.827344989217E-01  2.231953141031E-01  2.675342602585E-01
C12 -1.827344989217E-01 -2.231953141031E-01 -2.675342602585E-01
C13  1.309255410752E-01  1.108444971142E-01  1.932452019758E-01
C14 -1.309255410752E-01 -1.108444971142E-01 -1.932452019758E-01
C15  2.861595966369E-01  8.853609094555E-02  1.300685802212E-01
C16 -2.861595966369E-01 -8.853609094555E-02 -1.300685802212E-01
C17 -4.957810123562E-01  1.870661571361E-01  1.437310916954E-01
C18  4.957810123562E-01 -1.870661571361E-01 -1.437310916954E-01
C19 -4.459493181953E-01  3.019601258725E-01  2.197475862300E-01
C20  4.459493181953E-01 -3.019601258725E-01 -2.197475862300E-01
C21  2.357404247009E-01 -2.669036606250E-02  5.557901928573E-02
C22 -2.357404247009E-01  2.669036606250E-02 -5.557901928573E-02
C23  3.909020638745E-01 -4.942668609547E-02 -6.799250087096E-03
C24 -3.909020638745E-01  4.942668609547E-02  6.799250087096E-03
C25 -3.411062758996E-01  1.653438839135E-01  8.177098214729E-02
C26  3.411062758996E-01 -1.653438839135E-01 -8.177098214729E-02
C27 -4.588476080239E-01 -1.077698550571E-01  3.089958052442E-01
C28  4.588476080239E-01  1.077698550571E-01 -3.089958052442E-01
C29 -4.134694465372E-01 -6.511922227263E-02  3.923124332249E-01
C30  4.134694465372E-01  6.511922227263E-02 -3.923124332249E-01
C31 -2.170684287846E-01 -1.155424387527E-01  4.287793732753E-01
C32  2.170684287846E-01  1.155424387527E-01 -4.287793732753E-01
C33 -6.976388569651E-02 -2.040646234297E-01  3.805611427240E-01
C34  6.976388569651E-02  2.040646234297E-01 -3.805611427240E-01
C35 -1.099043094526E-01 -2.516457203451E-01  2.926088296103E-01
C36  1.099043094526E-01  2.516457203451E-01 -2.926088296103E-01
C37 -3.108378552380E-01 -2.031584811297E-01  2.560025608821E-01
C38  3.108378552380E-01  2.031584811297E-01 -2.560025608821E-01
C39 -3.537228917855E-01 -2.472042901478E-01  1.711041230984E-01
C40  3.537228917855E-01  2.472042901478E-01 -1.711041230984E-01
C41 -2.059185528565E-01 -3.394244138429E-01  1.189055899809E-01
C42  2.059185528565E-01  3.394244138429E-01 -1.189055899809E-01
C43 -4.512353024067E-03 -3.881694636535E-01  1.556058751257E-01
C44  4.512353024067E-03  3.881694636535E-01 -1.556058751257E-01
C45  3.669684954272E-02 -3.422883294747E-01  2.423251943715E-01
C46 -3.669684954272E-02  3.422883294747E-01 -2.423251943715E-01
C47 -2.482071793734E-01 -3.840975472736E-01  3.329147175626E-02
C48  2.482071793734E-01  3.840975472736E-01 -3.329147175626E-02
C49 -1.008271591960E-01 -4.756253058830E-01 -1.836236784417E-02
C50  1.008271591960E-01  4.756253058830E-01  1.836236784417E-02
C51  1.425927809427E-01 -4.791882788862E-01  1.044714704543E-01
C52 -1.425927809427E-01  4.791882788862E-01 -1.044714704543E-01
H53 -1.357288135037E-01  1.685495917540E-01  3.218799686798E-01
H54  1.357288135037E-01 -1.685495917540E-01 -3.218799686798E-01
H55 -3.725430353874E-02  3.645153796999E-01  4.542742768420E-01
H56  3.725430353874E-02 -3.645153796999E-01 -4.542742768420E-01
H57  3.365428123658E-01 -4.621718156158E-01  4.773849457490E-01
H58 -3.365428123658E-01  4.621718156158E-01 -4.773849457490E-01
H59 -3.866591626962E-01 -4.906657094754E-01  3.694372036783E-01
H60  3.866591626962E-01  4.906657094754E-01 -3.694372036783E-01
H61 -3.229699274160E-02  3.647366256217E-02  1.832081738978E-01
H62  3.229699274160E-02 -3.647366256217E-02 -1.832081738978E-01
H63 -2.825202840349E-01  3.758312808243E-01  2.300365431950E-01
H64  2.825202840349E-01 -3.758312808243E-01 -2.300365431950E-01
H65  7.255935727990E-02 -1.011384073641E-01  4.558843653693E-02
H66 -7.255935727990E-02  1.011384073641E-01 -4.558843653693E-02
H67 -1.778236666865E-01  2.395213184299E-01  9.188373554720E-02
H68  1.778236666865E-01 -2.395213184299E-01 -9.188373554720E-02
H69  3.920644294477E-01 -6.916384973907E-02  2.810341873947E-01
H70 -3.920644294477E-01  6.916384973907E-02 -2.810341873947E-01
H71  4.746289695871E-01  1.185733390774E-02  4.309389222759E-01
H72 -4.746289695871E-01 -1.185733390774E-02 -4.309389222759E-01
H73 -1.828179994815E-01 -8.099082102364E-02  4.954559190250E-01
H74  1.828179994815E-01  8.099082102364E-02 -4.954559190250E-01
H75  8.262491642330E-02 -2.394509912964E-01  4.074373915973E-01
H76 -8.262491642330E-02  2.394509912964E-01 -4.074373915973E-01
H77  4.956171561701E-01 -2.101490687142E-01  1.435866925529E-01
H78 -4.956171561701E-01  2.101490687142E-01 -1.435866925529E-01
H79  1.870753235323E-01 -3.794527854252E-01  2.699903654436E-01
H80 -1.870753235323E-01  3.794527854252E-01 -2.699903654436E-01
H81 -3.990077575028E-01 -3.472891294664E-01  5.798592070048E-03
H82  3.990077575028E-01  3.472891294664E-01 -5.798592070048E-03
H83  2.932621646245E-01  4.839548452638E-01  1.320310709068E-01
H84 -2.932621646245E-01 -4.839548452638E-01 -1.320310709068E-01


#===END

data_OPT_STEP_49

_symmetry_space_group_name_H-M 'P 1'
_cell_length_a      6.10641384
_cell_length_b      7.23756753
_cell_length_c     16.07854778
_cell_angle_alpha   96.540350
_cell_angle_beta   90.974978
_cell_angle_gamma   95.730440

loop_
_atom_site_label
_atom_site_fract_x
_atom_site_fract_y
_atom_site_fract_z
C1  2.700070716841E-02  2.433295723980E-01  3.322618598519E-01
C2 -2.700070716841E-02 -2.433295723980E-01 -3.322618598519E-01
C3  8.187346068388E-02  3.523106599264E-01  4.053198698978E-01
C4 -8.187346068388E-02 -3.523106599264E-01 -4.053198698978E-01
C5  2.961429797294E-01  4.497852503046E-01  4.188640183053E-01
C6 -2.961429797294E-01 -4.497852503046E-01 -4.188640183053E-01
C7  4.502329230954E-01  4.346751323619E-01  3.592200135989E-01
C8 -4.502329230954E-01 -4.346751323619E-01 -3.592200135989E-01
C9  4.005104484963E-01  3.209853663184E-01  2.813576590794E-01
C10 -4.005104484963E-01 -3.209853663184E-01 -2.813576590794E-01
C11  1.827506168552E-01  2.231951568757E-01  2.675447684932E-01
C12 -1.827506168552E-01 -2.231951568757E-01 -2.675447684932E-01
C13  1.309506402999E-01  1.108476445605E-01  1.932470035393E-01
C14 -1.309506402999E-01 -1.108476445605E-01 -1.932470035393E-01
C15  2.861605230569E-01  8.855847815478E-02  1.300663055503E-01
C16 -2.861605230569E-01 -8.855847815478E-02 -1.300663055503E-01
C17 -4.957991941671E-01  1.870746283822E-01  1.437391212555E-01
C18  4.957991941671E-01 -1.870746283822E-01 -1.437391212555E-01
C19 -4.459723384737E-01  3.019544098910E-01  2.197621908553E-01
C20  4.459723384737E-01 -3.019544098910E-01 -2.197621908553E-01
C21  2.357715730449E-01 -2.669927875288E-02  5.557835415372E-02
C22 -2.357715730449E-01  2.669927875288E-02 -5.557835415372E-02
C23  3.909258335634E-01 -4.944594189801E-02 -6.798241000604E-03
C24 -3.909258335634E-01  4.944594189801E-02  6.798241000604E-03
C25 -3.411427228507E-01  1.653648675047E-01  8.177441744598E-02
C26  3.411427228507E-01 -1.653648675047E-01 -8.177441744598E-02
C27 -4.588123807831E-01 -1.077249572378E-01  3.089980722433E-01
C28  4.588123807831E-01  1.077249572378E-01 -3.089980722433E-01
C29 -4.134483217057E-01 -6.507285121455E-02  3.923188859463E-01
C30  4.134483217057E-01  6.507285121455E-02 -3.923188859463E-01
C31 -2.170827235860E-01 -1.155216025194E-01  4.287889743326E-01
C32  2.170827235860E-01  1.155216025194E-01 -4.287889743326E-01
C33 -6.979060769694E-02 -2.040560502487E-01  3.805668970251E-01
C34  6.979060769694E-02  2.040560502487E-01 -3.805668970251E-01
C35 -1.099169110701E-01 -2.516307683952E-01  2.926142315573E-01
C36  1.099169110701E-01  2.516307683952E-01 -2.926142315573E-01
C37 -3.108254484091E-01 -2.031375083520E-01  2.560078954711E-01
C38  3.108254484091E-01  2.031375083520E-01 -2.560078954711E-01
C39 -3.536852629086E-01 -2.471623275596E-01  1.711056864677E-01
C40  3.536852629086E-01  2.471623275596E-01 -1.711056864677E-01
C41 -2.058971324131E-01 -3.393925709329E-01  1.189063246925E-01
C42  2.058971324131E-01  3.393925709329E-01 -1.189063246925E-01
C43 -4.513719072786E-03 -3.881474008089E-01  1.556081720722E-01
C44  4.513719072786E-03  3.881474008089E-01 -1.556081720722E-01
C45  3.666995745331E-02 -3.422872205203E-01  2.423279525096E-01
C46 -3.666995745331E-02  3.422872205203E-01 -2.423279525096E-01
C47 -2.481919544176E-01 -3.840940794188E-01  3.329273812471E-02
C48  2.481919544176E-01  3.840940794188E-01 -3.329273812471E-02
C49 -1.008074353255E-01 -4.756069367537E-01 -1.836355229273E-02
C50  1.008074353255E-01  4.756069367537E-01  1.836355229273E-02
C51  1.425692863378E-01 -4.791954701093E-01  1.044721868824E-01
C52 -1.425692863378E-01  4.791954701093E-01 -1.044721868824E-01
H53 -1.356809895910E-01  1.685148842294E-01  3.218923618073E-01
H54  1.356809895910E-01 -1.685148842294E-01 -3.218923618073E-01
H55 -3.725300486206E-02  3.645271338504E-01  4.542964134943E-01
H56  3.725300486206E-02 -3.645271338504E-01 -4.542964134943E-01
H57  3.365410611589E-01 -4.621765197553E-01  4.774111461677E-01
H58 -3.365410611589E-01  4.621765197553E-01 -4.774111461677E-01
H59 -3.866970544908E-01 -4.906361422052E-01  3.694511798722E-01
H60  3.866970544908E-01  4.906361422052E-01 -3.694511798722E-01
H61 -3.225586826881E-02  3.644589713748E-02  1.832140151751E-01
H62  3.225586826881E-02 -3.644589713748E-02 -1.832140151751E-01
H63 -2.825590894543E-01  3.758455275069E-01  2.300500741772E-01
H64  2.825590894543E-01 -3.758455275069E-01 -2.300500741772E-01
H65  7.260868825121E-02 -1.011815616062E-01  4.559292691452E-02
H66 -7.260868825121E-02  1.011815616062E-01 -4.559292691452E-02
H67 -1.778710148110E-01  2.395626728346E-01  9.188542022681E-02
H68  1.778710148110E-01 -2.395626728346E-01 -9.188542022681E-02
H69  3.921255976328E-01 -6.908138876665E-02  2.810315162164E-01
H70 -3.921255976328E-01  6.908138876665E-02 -2.810315162164E-01
H71  4.746386785077E-01  1.189809624798E-02  4.309465008792E-01
H72 -4.746386785077E-01 -1.189809624798E-02 -4.309465008792E-01
H73 -1.828476971182E-01 -8.100314886054E-02  4.954723387815E-01
H74  1.828476971182E-01  8.100314886054E-02 -4.954723387815E-01
H75  8.260695369261E-02 -2.394268028960E-01  4.074400043692E-01
H76 -8.260695369261E-02  2.394268028960E-01 -4.074400043692E-01
H77  4.956554048759E-01 -2.100933339885E-01  1.435908363575E-01
H78 -4.956554048759E-01  2.100933339885E-01 -1.435908363575E-01
H79  1.870356786849E-01 -3.794763616406E-01  2.699921716078E-01
H80 -1.870356786849E-01  3.794763616406E-01 -2.699921716078E-01
H81 -3.989950607330E-01 -3.472865022347E-01  5.798878815843E-03
H82  3.989950607330E-01  3.472865022347E-01 -5.798878815843E-03
H83  2.932492540476E-01  4.839575122742E-01  1.320305710197E-01
H84 -2.932492540476E-01 -4.839575122742E-01 -1.320305710197E-01


#===END

data_OPT_STEP_50

_symmetry_space_group_name_H-M 'P 1'
_cell_length_a      6.10750654
_cell_length_b      7.23704467
_cell_length_c     16.07860931
_cell_angle_alpha   96.550476
_cell_angle_beta   90.978440
_cell_angle_gamma   95.728535

loop_
_atom_site_label
_atom_site_fract_x
_atom_site_fract_y
_atom_site_fract_z
C1  2.707501513931E-02  2.433249656731E-01  3.322721637351E-01
C2 -2.707501513931E-02 -2.433249656731E-01 -3.322721637351E-01
C3  8.193496596805E-02  3.523112793446E-01  4.053416438613E-01
C4 -8.193496596805E-02 -3.523112793446E-01 -4.053416438613E-01
C5  2.961430878940E-01  4.498250791887E-01  4.188958648130E-01
C6 -2.961430878940E-01 -4.498250791887E-01 -4.188958648130E-01
C7  4.502034159529E-01  4.347298316038E-01  3.592503650164E-01
C8 -4.502034159529E-01 -4.347298316038E-01 -3.592503650164E-01
C9  4.004996349774E-01  3.210225705038E-01  2.813817893813E-01
C10 -4.004996349774E-01 -3.210225705038E-01 -2.813817893813E-01
C11  1.828023791372E-01  2.231871977513E-01  2.675609416640E-01
C12 -1.828023791372E-01 -2.231871977513E-01 -2.675609416640E-01
C13  1.310299814692E-01  1.108096129547E-01  1.932552725581E-01
C14 -1.310299814692E-01 -1.108096129547E-01 -1.932552725581E-01
C15  2.862175120830E-01  8.851446254887E-02  1.300797926579E-01
C16 -2.862175120830E-01 -8.851446254887E-02 -1.300797926579E-01
C17 -4.958096613568E-01  1.870880876446E-01  1.437577774017E-01
C18  4.958096613568E-01 -1.870880876446E-01 -1.437577774017E-01
C19 -4.460091936274E-01  3.019944562721E-01  2.197858908739E-01
C20  4.460091936274E-01 -3.019944562721E-01 -2.197858908739E-01
C21  2.358237686515E-01 -2.671363894205E-02  5.556958848086E-02
C22 -2.358237686515E-01  2.671363894205E-02 -5.556958848086E-02
C23  3.909383893363E-01 -4.943791179347E-02 -6.810574921805E-03
C24 -3.909383893363E-01  4.943791179347E-02  6.810574921805E-03
C25 -3.411810667408E-01  1.653834606236E-01  8.179336371994E-02
C26  3.411810667408E-01 -1.653834606236E-01 -8.179336371994E-02
C27 -4.587326782015E-01 -1.076395610116E-01  3.090017222164E-01
C28  4.587326782015E-01  1.076395610116E-01 -3.090017222164E-01
C29 -4.134354478821E-01 -6.504347850276E-02  3.923327893733E-01
C30  4.134354478821E-01  6.504347850276E-02 -3.923327893733E-01
C31 -2.171106951694E-01 -1.154923643205E-01  4.288090979292E-01
C32  2.171106951694E-01  1.154923643205E-01 -4.288090979292E-01
C33 -6.983010231566E-02 -2.040254434418E-01  3.805844171398E-01
C34  6.983010231566E-02  2.040254434418E-01 -3.805844171398E-01
C35 -1.099174312645E-01 -2.515801301514E-01  2.926268554689E-01
C36  1.099174312645E-01  2.515801301514E-01 -2.926268554689E-01
C37 -3.107602774556E-01 -2.030521377368E-01  2.560131678848E-01
C38  3.107602774556E-01  2.030521377368E-01 -2.560131678848E-01
C39 -3.536366991768E-01 -2.471320266265E-01  1.711087453645E-01
C40  3.536366991768E-01  2.471320266265E-01 -1.711087453645E-01
C41 -2.058988618175E-01 -3.394084202625E-01  1.189111759236E-01
C42  2.058988618175E-01  3.394084202625E-01 -1.189111759236E-01
C43 -4.545272578268E-03 -3.881545027018E-01  1.556182981497E-01
C44  4.545272578268E-03  3.881545027018E-01 -1.556182981497E-01
C45  3.664105652942E-02 -3.422599547191E-01  2.423392353423E-01
C46 -3.664105652942E-02  3.422599547191E-01 -2.423392353423E-01
C47 -2.481434505126E-01 -3.840704294773E-01  3.329028428771E-02
C48  2.481434505126E-01  3.840704294773E-01 -3.329028428771E-02
C49 -1.008096648483E-01 -4.756344541008E-01 -1.836449232748E-02
C50  1.008096648483E-01  4.756344541008E-01  1.836449232748E-02
C51  1.425386874141E-01 -4.791830674822E-01  1.044781822671E-01
C52 -1.425386874141E-01  4.791830674822E-01 -1.044781822671E-01
H53 -1.355895586900E-01  1.685097193863E-01  3.218943115004E-01
H54  1.355895586900E-01 -1.685097193863E-01 -3.218943115004E-01
H55 -3.720527623711E-02  3.645442802392E-01  4.543203612383E-01
H56  3.720527623711E-02 -3.645442802392E-01 -4.543203612383E-01
H57  3.365352967492E-01 -4.621465896402E-01  4.774554008800E-01
H58 -3.365352967492E-01  4.621465896402E-01 -4.774554008800E-01
H59 -3.867583915410E-01 -4.905614564374E-01  3.694873143820E-01
H60  3.867583915410E-01  4.905614564374E-01 -3.694873143820E-01
H61 -3.214880114184E-02  3.638722564047E-02  1.832192778861E-01
H62  3.214880114184E-02 -3.638722564047E-02 -1.832192778861E-01
H63 -2.826236419564E-01  3.758967818477E-01  2.300805679713E-01
H64  2.826236419564E-01 -3.758967818477E-01 -2.300805679713E-01
H65  7.268697032634E-02 -1.012116893959E-01  4.557987028689E-02
H66 -7.268697032634E-02  1.012116893959E-01 -4.557987028689E-02
H67 -1.779467968102E-01  2.396189063092E-01  9.190370288579E-02
H68  1.779467968102E-01 -2.396189063092E-01 -9.190370288579E-02
H69  3.922515944796E-01 -6.895709441182E-02  2.810296335449E-01
H70 -3.922515944796E-01  6.895709441182E-02 -2.810296335449E-01
H71  4.746502439268E-01  1.192465411815E-02  4.309591354862E-01
H72 -4.746502439268E-01 -1.192465411815E-02 -4.309591354862E-01
H73 -1.828772424737E-01 -8.097417418861E-02  4.954980497664E-01
H74  1.828772424737E-01  8.097417418861E-02 -4.954980497664E-01
H75  8.255081864400E-02 -2.393851393461E-01  4.074565033067E-01
H76 -8.255081864400E-02  2.393851393461E-01 -4.074565033067E-01
H77  4.957275994461E-01 -2.100441503755E-01  1.435959900412E-01
H78 -4.957275994461E-01  2.100441503755E-01 -1.435959900412E-01
H79  1.869867745031E-01 -3.794552058495E-01  2.700026553913E-01
H80 -1.869867745031E-01  3.794552058495E-01 -2.700026553913E-01
H81 -3.988962316703E-01 -3.472150631415E-01  5.791568975046E-03
H82  3.988962316703E-01  3.472150631415E-01 -5.791568975046E-03
H83  2.931854669080E-01  4.839456770381E-01  1.320386124547E-01
H84 -2.931854669080E-01 -4.839456770381E-01 -1.320386124547E-01


#===END

data_OPT_STEP_51

_symmetry_space_group_name_H-M 'P 1'
_cell_length_a      6.10959826
_cell_length_b      7.23505101
_cell_length_c     16.07838021
_cell_angle_alpha   96.567305
_cell_angle_beta   90.987763
_cell_angle_gamma   95.726813

loop_
_atom_site_label
_atom_site_fract_x
_atom_site_fract_y
_atom_site_fract_z
C1  2.721417176821E-02  2.432952395467E-01  3.322814548154E-01
C2 -2.721417176821E-02 -2.432952395467E-01 -3.322814548154E-01
C3  8.202834300016E-02  3.523538684974E-01  4.053628523152E-01
C4 -8.202834300016E-02 -3.523538684974E-01 -4.053628523152E-01
C5  2.961534655986E-01  4.499342020602E-01  4.189457660893E-01
C6 -2.961534655986E-01 -4.499342020602E-01 -4.189457660893E-01
C7  4.501512516775E-01  4.348855051270E-01  3.593008941814E-01
C8 -4.501512516775E-01 -4.348855051270E-01 -3.593008941814E-01
C9  4.004909482460E-01  3.211086935709E-01  2.814176552856E-01
C10 -4.004909482460E-01 -3.211086935709E-01 -2.814176552856E-01
C11  1.828791982194E-01  2.232030882208E-01  2.675702149734E-01
C12 -1.828791982194E-01 -2.232030882208E-01 -2.675702149734E-01
C13  1.311454196732E-01  1.107757903095E-01  1.932498420757E-01
C14 -1.311454196732E-01 -1.107757903095E-01 -1.932498420757E-01
C15  2.862630705484E-01  8.853480914082E-02  1.300715538929E-01
C16 -2.862630705484E-01 -8.853480914082E-02 -1.300715538929E-01
C17 -4.958435529501E-01  1.871642506091E-01  1.437777040434E-01
C18  4.958435529501E-01 -1.871642506091E-01 -1.437777040434E-01
C19 -4.460827550656E-01  3.021269795999E-01  2.198207510183E-01
C20  4.460827550656E-01 -3.021269795999E-01 -2.198207510183E-01
C21  2.359162361934E-01 -2.676138630688E-02  5.555082266601E-02
C22 -2.359162361934E-01  2.676138630688E-02 -5.555082266601E-02
C23  3.909762141288E-01 -4.946210608226E-02 -6.825319777122E-03
C24 -3.909762141288E-01  4.946210608226E-02  6.825319777122E-03
C25 -3.412457308329E-01  1.654404802694E-01  8.182785661552E-02
C26  3.412457308329E-01 -1.654404802694E-01 -8.182785661552E-02
C27 -4.586490102672E-01 -1.075360486828E-01  3.090112951435E-01
C28  4.586490102672E-01  1.075360486828E-01 -3.090112951435E-01
C29 -4.133863832147E-01 -6.493580850870E-02  3.923527823468E-01
C30  4.133863832147E-01  6.493580850870E-02 -3.923527823468E-01
C31 -2.171417629407E-01 -1.154114738798E-01  4.288429016752E-01
C32  2.171417629407E-01  1.154114738798E-01 -4.288429016752E-01
C33 -6.983830685058E-02 -2.038834425054E-01  3.806155527492E-01
C34  6.983830685058E-02  2.038834425054E-01 -3.806155527492E-01
C35 -1.099249002053E-01 -2.514973043757E-01  2.926499693015E-01
C36  1.099249002053E-01  2.514973043757E-01 -2.926499693015E-01
C37 -3.107149951931E-01 -2.029787426452E-01  2.560237915706E-01
C38  3.107149951931E-01  2.029787426452E-01 -2.560237915706E-01
C39 -3.535509800524E-01 -2.470551048535E-01  1.711078083775E-01
C40  3.535509800524E-01  2.470551048535E-01 -1.711078083775E-01
C41 -2.058179659829E-01 -3.393110379644E-01  1.189092970875E-01
C42  2.058179659829E-01  3.393110379644E-01 -1.189092970875E-01
C43 -4.534747169721E-03 -3.880706557987E-01  1.556303773054E-01
C44  4.534747169721E-03  3.880706557987E-01 -1.556303773054E-01
C45  3.661622910451E-02 -3.421750055758E-01  2.423627450391E-01
C46 -3.661622910451E-02  3.421750055758E-01 -2.423627450391E-01
C47 -2.480894633946E-01 -3.840666274204E-01  3.328283683112E-02
C48  2.480894633946E-01  3.840666274204E-01 -3.328283683112E-02
C49 -1.007702759459E-01 -4.756226315524E-01 -1.837201339667E-02
C50  1.007702759459E-01  4.756226315524E-01  1.837201339667E-02
C51  1.425100038458E-01 -4.791248510494E-01  1.044925768429E-01
C52 -1.425100038458E-01  4.791248510494E-01 -1.044925768429E-01
H53 -1.353730515885E-01  1.684141018070E-01  3.218949204574E-01
H54  1.353730515885E-01 -1.684141018070E-01 -3.218949204574E-01
H55 -3.706600703836E-02  3.645553903824E-01  4.543396725426E-01
H56  3.706600703836E-02 -3.645553903824E-01 -4.543396725426E-01
H57  3.365218124100E-01 -4.620241162647E-01  4.775221380475E-01
H58 -3.365218124100E-01  4.620241162647E-01 -4.775221380475E-01
H59 -3.868729716166E-01 -4.903636033126E-01  3.695575475589E-01
H60  3.868729716166E-01  4.903636033126E-01 -3.695575475589E-01
H61 -3.195703560109E-02  3.629014907812E-02  1.832047726848E-01
H62  3.195703560109E-02 -3.629014907812E-02 -1.832047726848E-01
H63 -2.827461356897E-01  3.760467722275E-01  2.301391922352E-01
H64  2.827461356897E-01 -3.760467722275E-01 -2.301391922352E-01
H65  7.284094084990E-02 -1.012930747901E-01  4.554495122098E-02
H66 -7.284094084990E-02  1.012930747901E-01 -4.554495122098E-02
H67 -1.780599700962E-01  2.396881576092E-01  9.196071051978E-02
H68  1.780599700962E-01 -2.396881576092E-01 -9.196071051978E-02
H69  3.923658211507E-01 -6.887385658567E-02  2.810349452073E-01
H70 -3.923658211507E-01  6.887385658567E-02 -2.810349452073E-01
H71  4.747289353202E-01  1.205024098045E-02  4.309759524658E-01
H72 -4.747289353202E-01 -1.205024098045E-02 -4.309759524658E-01
H73 -1.829414784895E-01 -8.090707479637E-02  4.955391915531E-01
H74  1.829414784895E-01  8.090707479637E-02 -4.955391915531E-01
H75  8.248954748752E-02 -2.392501364524E-01  4.074943702135E-01
H76 -8.248954748752E-02  2.392501364524E-01 -4.074943702135E-01
H77  4.958774052498E-01 -2.099392301569E-01  1.435879243355E-01
H78 -4.958774052498E-01  2.099392301569E-01 -1.435879243355E-01
H79  1.868976331502E-01 -3.793959125351E-01  2.700346824772E-01
H80 -1.868976331502E-01  3.793959125351E-01 -2.700346824772E-01
H81 -3.988244616100E-01 -3.472533302811E-01  5.779998353987E-03
H82  3.988244616100E-01  3.472533302811E-01 -5.779998353987E-03
H83  2.931011763406E-01  4.839903075884E-01  1.320605557516E-01
H84 -2.931011763406E-01 -4.839903075884E-01 -1.320605557516E-01


#===END

data_OPT_STEP_52

_symmetry_space_group_name_H-M 'P 1'
_cell_length_a      6.11112494
_cell_length_b      7.23362549
_cell_length_c     16.07882193
_cell_angle_alpha   96.587109
_cell_angle_beta   91.003835
_cell_angle_gamma   95.731361

loop_
_atom_site_label
_atom_site_fract_x
_atom_site_fract_y
_atom_site_fract_z
C1  2.727806925532E-02  2.433418687923E-01  3.322418240810E-01
C2 -2.727806925532E-02 -2.433418687923E-01 -3.322418240810E-01
C3  8.209358253482E-02  3.524022138817E-01  4.053520986739E-01
C4 -8.209358253482E-02 -3.524022138817E-01 -4.053520986739E-01
C5  2.961596831117E-01  4.500417819809E-01  4.189705554539E-01
C6 -2.961596831117E-01 -4.500417819809E-01 -4.189705554539E-01
C7  4.501085213894E-01  4.350334298527E-01  3.593364152791E-01
C8 -4.501085213894E-01 -4.350334298527E-01 -3.593364152791E-01
C9  4.004540844339E-01  3.212415846092E-01  2.814279989079E-01
C10 -4.004540844339E-01 -3.212415846092E-01 -2.814279989079E-01
C11  1.829050529616E-01  2.232718794452E-01  2.675446798993E-01
C12 -1.829050529616E-01 -2.232718794452E-01 -2.675446798993E-01
C13  1.311924831343E-01  1.108079321400E-01  1.932043942561E-01
C14 -1.311924831343E-01 -1.108079321400E-01 -1.932043942561E-01
C15  2.862906345202E-01  8.855714697142E-02  1.300486531809E-01
C16 -2.862906345202E-01 -8.855714697142E-02 -1.300486531809E-01
C17 -4.958690455422E-01  1.872327229492E-01  1.437956174806E-01
C18  4.958690455422E-01 -1.872327229492E-01 -1.437956174806E-01
C19 -4.461381809811E-01  3.022501100553E-01  2.198542744744E-01
C20  4.461381809811E-01 -3.022501100553E-01 -2.198542744744E-01
C21  2.359700550502E-01 -2.678838013196E-02  5.551132063896E-02
C22 -2.359700550502E-01  2.678838013196E-02 -5.551132063896E-02
C23  3.910099801860E-01 -4.949827533075E-02 -6.842414761752E-03
C24 -3.910099801860E-01  4.949827533075E-02  6.842414761752E-03
C25 -3.413075242016E-01  1.655300392522E-01  8.186087979610E-02
C26  3.413075242016E-01 -1.655300392522E-01 -8.186087979610E-02
C27 -4.585534555810E-01 -1.074330441505E-01  3.090036532378E-01
C28  4.585534555810E-01  1.074330441505E-01 -3.090036532378E-01
C29 -4.132831861310E-01 -6.478439471446E-02  3.923532342224E-01
C30  4.132831861310E-01  6.478439471446E-02 -3.923532342224E-01
C31 -2.171037924050E-01 -1.152735597675E-01  4.288594372648E-01
C32  2.171037924050E-01  1.152735597675E-01 -4.288594372648E-01
C33 -6.987637542499E-02 -2.038157439079E-01  3.806409275728E-01
C34  6.987637542499E-02  2.038157439079E-01 -3.806409275728E-01
C35 -1.099223450148E-01 -2.514063344450E-01  2.926625334659E-01
C36  1.099223450148E-01  2.514063344450E-01 -2.926625334659E-01
C37 -3.106634564227E-01 -2.029036490526E-01  2.560207412409E-01
C38  3.106634564227E-01  2.029036490526E-01 -2.560207412409E-01
C39 -3.534821000382E-01 -2.470046859061E-01  1.710946313030E-01
C40  3.534821000382E-01  2.470046859061E-01 -1.710946313030E-01
C41 -2.057816960978E-01 -3.392779284284E-01  1.189029312913E-01
C42  2.057816960978E-01  3.392779284284E-01 -1.189029312913E-01
C43 -4.532246224517E-03 -3.879953352478E-01  1.556389030003E-01
C44  4.532246224517E-03  3.879953352478E-01 -1.556389030003E-01
C45  3.660268277415E-02 -3.420721794305E-01  2.423804631138E-01
C46 -3.660268277415E-02  3.420721794305E-01 -2.423804631138E-01
C47 -2.480450341611E-01 -3.840780247364E-01  3.326788661773E-02
C48  2.480450341611E-01  3.840780247364E-01 -3.326788661773E-02
C49 -1.007584170878E-01 -4.756518886135E-01 -1.837917078934E-02
C50  1.007584170878E-01  4.756518886135E-01  1.837917078934E-02
C51  1.424922191051E-01 -4.790475918505E-01  1.045077288583E-01
C52 -1.424922191051E-01  4.790475918505E-01 -1.045077288583E-01
H53 -1.352724353728E-01  1.684321809045E-01  3.218250306197E-01
H54  1.352724353728E-01 -1.684321809045E-01 -3.218250306197E-01
H55 -3.695842635207E-02  3.645793087895E-01  4.543198594870E-01
H56  3.695842635207E-02 -3.645793087895E-01 -4.543198594870E-01
H57  3.365181317313E-01 -4.618945360346E-01  4.775631859595E-01
H58 -3.365181317313E-01  4.618945360346E-01 -4.775631859595E-01
H59 -3.869694245321E-01 -4.901544321937E-01  3.696161461724E-01
H60  3.869694245321E-01  4.901544321937E-01 -3.696161461724E-01
H61 -3.187295531938E-02  3.629337589817E-02  1.831278145711E-01
H62  3.187295531938E-02 -3.629337589817E-02 -1.831278145711E-01
H63 -2.828520005406E-01  3.762216252904E-01  2.301994958470E-01
H64  2.828520005406E-01 -3.762216252904E-01 -2.301994958470E-01
H65  7.293364893326E-02 -1.013525727762E-01  4.547494451866E-02
H66 -7.293364893326E-02  1.013525727762E-01 -4.547494451866E-02
H67 -1.781724953125E-01  2.398293817166E-01  9.201983331753E-02
H68  1.781724953125E-01 -2.398293817166E-01 -9.201983331753E-02
H69  3.925006164726E-01 -6.877459616254E-02  2.810158334025E-01
H70 -3.925006164726E-01  6.877459616254E-02 -2.810158334025E-01
H71  4.748622890391E-01  1.221641057802E-02  4.309736565680E-01
H72 -4.748622890391E-01 -1.221641057802E-02 -4.309736565680E-01
H73 -1.829051261464E-01 -8.073367806993E-02  4.955614236631E-01
H74  1.829051261464E-01  8.073367806993E-02 -4.955614236631E-01
H75  8.241506535567E-02 -2.391844219826E-01  4.075261317622E-01
H76 -8.241506535567E-02  2.391844219826E-01 -4.075261317622E-01
H77  4.959782929388E-01 -2.099095846049E-01  1.435615200221E-01
H78 -4.959782929388E-01  2.099095846049E-01 -1.435615200221E-01
H79  1.868634675758E-01 -3.792538027023E-01  2.700650012567E-01
H80 -1.868634675758E-01  3.792538027023E-01 -2.700650012567E-01
H81 -3.987410010229E-01 -3.472773046208E-01  5.751074274117E-03
H82  3.987410010229E-01  3.472773046208E-01 -5.751074274117E-03
H83  2.930672280611E-01  4.841152026686E-01  1.320880080241E-01
H84 -2.930672280611E-01 -4.841152026686E-01 -1.320880080241E-01


#===END

data_OPT_STEP_53

_symmetry_space_group_name_H-M 'P 1'
_cell_length_a      6.11215997
_cell_length_b      7.23518511
_cell_length_c     16.07801065
_cell_angle_alpha   96.605131
_cell_angle_beta   91.023872
_cell_angle_gamma   95.731020

loop_
_atom_site_label
_atom_site_fract_x
_atom_site_fract_y
_atom_site_fract_z
C1  2.732517721587E-02  2.433858408352E-01  3.322210062398E-01
C2 -2.732517721587E-02 -2.433858408352E-01 -3.322210062398E-01
C3  8.212643467322E-02  3.524396084186E-01  4.053536605319E-01
C4 -8.212643467322E-02 -3.524396084186E-01 -4.053536605319E-01
C5  2.961225001410E-01  4.501140132569E-01  4.190009669420E-01
C6 -2.961225001410E-01 -4.501140132569E-01 -4.190009669420E-01
C7  4.500498208114E-01  4.350970819083E-01  3.593808916497E-01
C8 -4.500498208114E-01 -4.350970819083E-01 -3.593808916497E-01
C9  4.004330067485E-01  3.212748703922E-01  2.814611558611E-01
C10 -4.004330067485E-01 -3.212748703922E-01 -2.814611558611E-01
C11  1.829255437597E-01  2.233174956039E-01  2.675390043302E-01
C12 -1.829255437597E-01 -2.233174956039E-01 -2.675390043302E-01
C13  1.312429259666E-01  1.108326762096E-01  1.931792491012E-01
C14 -1.312429259666E-01 -1.108326762096E-01 -1.931792491012E-01
C15  2.863150756300E-01  8.857930728321E-02  1.300374568311E-01
C16 -2.863150756300E-01 -8.857930728321E-02 -1.300374568311E-01
C17 -4.959130560386E-01  1.873001089499E-01  1.438112927727E-01
C18  4.959130560386E-01 -1.873001089499E-01 -1.438112927727E-01
C19 -4.461968611007E-01  3.023078330778E-01  2.198948310961E-01
C20  4.461968611007E-01 -3.023078330778E-01 -2.198948310961E-01
C21  2.360349094251E-01 -2.681509299497E-02  5.548795293231E-02
C22 -2.360349094251E-01  2.681509299497E-02 -5.548795293231E-02
C23  3.910538971472E-01 -4.953951071619E-02 -6.851427244852E-03
C24 -3.910538971472E-01  4.953951071619E-02  6.851427244852E-03
C25 -3.413837651948E-01  1.656087486350E-01  8.188502111041E-02
C26  3.413837651948E-01 -1.656087486350E-01 -8.188502111041E-02
C27 -4.584827315539E-01 -1.073415742543E-01  3.089820449530E-01
C28  4.584827315539E-01  1.073415742543E-01 -3.089820449530E-01
C29 -4.132041534257E-01 -6.464107053994E-02  3.923496225663E-01
C30  4.132041534257E-01  6.464107053994E-02 -3.923496225663E-01
C31 -2.170651428660E-01 -1.150998070755E-01  4.288832719863E-01
C32  2.170651428660E-01  1.150998070755E-01 -4.288832719863E-01
C33 -6.988544265276E-02 -2.036637998880E-01  3.806730085952E-01
C34  6.988544265276E-02  2.036637998880E-01 -3.806730085952E-01
C35 -1.099599539024E-01 -2.513221991232E-01  2.926832552032E-01
C36  1.099599539024E-01  2.513221991232E-01 -2.926832552032E-01
C37 -3.106406029632E-01 -2.028365888527E-01  2.560101759750E-01
C38  3.106406029632E-01  2.028365888527E-01 -2.560101759750E-01
C39 -3.534653913791E-01 -2.470082940447E-01  1.710681059583E-01
C40  3.534653913791E-01  2.470082940447E-01 -1.710681059583E-01
C41 -2.058015364530E-01 -3.393004337948E-01  1.188914848213E-01
C42  2.058015364530E-01  3.393004337948E-01 -1.188914848213E-01
C43 -4.607990278261E-03 -3.879974868376E-01  1.556607901128E-01
C44  4.607990278261E-03  3.879974868376E-01 -1.556607901128E-01
C45  3.652940494785E-02 -3.420060630270E-01  2.424149863878E-01
C46 -3.652940494785E-02  3.420060630270E-01 -2.424149863878E-01
C47 -2.480059098156E-01 -3.840974165702E-01  3.323668370485E-02
C48  2.480059098156E-01  3.840974165702E-01 -3.323668370485E-02
C49 -1.007083975084E-01 -4.756326328742E-01 -1.839772721802E-02
C50  1.007083975084E-01  4.756326328742E-01  1.839772721802E-02
C51  1.423961157418E-01 -4.790546990904E-01  1.045437187544E-01
C52 -1.423961157418E-01  4.790546990904E-01 -1.045437187544E-01
H53 -1.351875768162E-01  1.684654215737E-01  3.217742711484E-01
H54  1.351875768162E-01 -1.684654215737E-01 -3.217742711484E-01
H55 -3.692188432673E-02  3.646151802547E-01  4.543096426164E-01
H56  3.692188432673E-02 -3.646151802547E-01 -4.543096426164E-01
H57  3.364447917128E-01 -4.617783893153E-01  4.776056864376E-01
H58 -3.364447917128E-01  4.617783893153E-01 -4.776056864376E-01
H59 -3.870766634869E-01 -4.900597395807E-01  3.696876860312E-01
H60  3.870766634869E-01  4.900597395807E-01 -3.696876860312E-01
H61 -3.178346830001E-02  3.630390385660E-02  1.830719793417E-01
H62  3.178346830001E-02 -3.630390385660E-02 -1.830719793417E-01
H63 -2.829548437611E-01  3.763007325299E-01  2.302738096209E-01
H64  2.829548437611E-01 -3.763007325299E-01 -2.302738096209E-01
H65  7.305415824925E-02 -1.014230636234E-01  4.542805510814E-02
H66 -7.305415824925E-02  1.014230636234E-01 -4.542805510814E-02
H67 -1.783184042786E-01  2.399719018663E-01  9.206418737241E-02
H68  1.783184042786E-01 -2.399719018663E-01 -9.206418737241E-02
H69  3.926186835101E-01 -6.868450099086E-02  2.809719778626E-01
H70 -3.926186835101E-01  6.868450099086E-02 -2.809719778626E-01
H71  4.749985205245E-01  1.241173687360E-02  4.309653582472E-01
H72 -4.749985205245E-01 -1.241173687360E-02 -4.309653582472E-01
H73 -1.828831698239E-01 -8.055313811954E-02  4.956023951113E-01
H74  1.828831698239E-01  8.055313811954E-02 -4.956023951113E-01
H75  8.238368935912E-02 -2.390072051626E-01  4.075645412633E-01
H76 -8.238368935912E-02  2.390072051626E-01 -4.075645412633E-01
H77  4.960285470340E-01 -2.099370448075E-01  1.435132738660E-01
H78 -4.960285470340E-01  2.099370448075E-01 -1.435132738660E-01
H79  1.867429604322E-01 -3.791712207924E-01  2.701258449131E-01
H80 -1.867429604322E-01  3.791712207924E-01 -2.701258449131E-01
H81 -3.986544379233E-01 -3.473161018660E-01  5.692196437915E-03
H82  3.986544379233E-01  3.473161018660E-01 -5.692196437915E-03
H83  2.929054299247E-01  4.841046968263E-01  1.321537497778E-01
H84 -2.929054299247E-01 -4.841046968263E-01 -1.321537497778E-01


#===END

data_OPT_STEP_54

_symmetry_space_group_name_H-M 'P 1'
_cell_length_a      6.11649508
_cell_length_b      7.23039169
_cell_length_c     16.07413949
_cell_angle_alpha   96.597108
_cell_angle_beta   91.042016
_cell_angle_gamma   95.744869

loop_
_atom_site_label
_atom_site_fract_x
_atom_site_fract_y
_atom_site_fract_z
C1  2.757011174229E-02  2.436046072149E-01  3.321829242769E-01
C2 -2.757011174229E-02 -2.436046072149E-01 -3.321829242769E-01
C3  8.234561898890E-02  3.526929100001E-01  4.053414835986E-01
C4 -8.234561898890E-02 -3.526929100001E-01 -4.053414835986E-01
C5  2.961842531062E-01  4.504925337464E-01  4.190108075540E-01
C6 -2.961842531062E-01 -4.504925337464E-01 -4.190108075540E-01
C7  4.500191304109E-01  4.354773680735E-01  3.594025726331E-01
C8 -4.500191304109E-01 -4.354773680735E-01 -3.594025726331E-01
C9  4.004418923863E-01  3.215777837412E-01  2.814652290756E-01
C10 -4.004418923863E-01 -3.215777837412E-01 -2.814652290756E-01
C11  1.830775483249E-01  2.235274563058E-01  2.675153345290E-01
C12 -1.830775483249E-01 -2.235274563058E-01 -2.675153345290E-01
C13  1.313818680430E-01  1.110372012092E-01  1.931176597850E-01
C14 -1.313818680430E-01 -1.110372012092E-01 -1.931176597850E-01
C15  2.864023784179E-01  8.870676695358E-02  1.300070137108E-01
C16 -2.864023784179E-01 -8.870676695358E-02 -1.300070137108E-01
C17 -4.959588121910E-01  1.875087545790E-01  1.438124355138E-01
C18  4.959588121910E-01 -1.875087545790E-01 -1.438124355138E-01
C19 -4.462396707375E-01  3.025436421358E-01  2.199291309667E-01
C20  4.462396707375E-01 -3.025436421358E-01 -2.199291309667E-01
C21  2.361499581265E-01 -2.677381319991E-02  5.543800447202E-02
C22 -2.361499581265E-01  2.677381319991E-02 -5.543800447202E-02
C23  3.911088276316E-01 -4.955983089978E-02 -6.872481755526E-03
C24 -3.911088276316E-01  4.955983089978E-02  6.872481755526E-03
C25 -3.414876162404E-01  1.657497910073E-01  8.191590823148E-02
C26  3.414876162404E-01 -1.657497910073E-01 -8.191590823148E-02
C27 -4.583536268403E-01 -1.071111221840E-01  3.089135046722E-01
C28  4.583536268403E-01  1.071111221840E-01 -3.089135046722E-01
C29 -4.131842857850E-01 -6.440610999106E-02  3.923109190412E-01
C30  4.131842857850E-01  6.440610999106E-02 -3.923109190412E-01
C31 -2.171699281060E-01 -1.148053360603E-01  4.288976147288E-01
C32  2.171699281060E-01  1.148053360603E-01 -4.288976147288E-01
C33 -6.997941373939E-02 -2.032754674511E-01  3.807096279733E-01
C34  6.997941373939E-02  2.032754674511E-01 -3.807096279733E-01
C35 -1.099491263736E-01 -2.509435461572E-01  2.926924014360E-01
C36  1.099491263736E-01  2.509435461572E-01 -2.926924014360E-01
C37 -3.105210709081E-01 -2.025527986067E-01  2.559633638868E-01
C38  3.105210709081E-01  2.025527986067E-01 -2.559633638868E-01
C39 -3.533021295905E-01 -2.468440200809E-01  1.709990097006E-01
C40  3.533021295905E-01  2.468440200809E-01 -1.709990097006E-01
C41 -2.057529522136E-01 -3.392396658756E-01  1.188580649767E-01
C42  2.057529522136E-01  3.392396658756E-01 -1.188580649767E-01
C43 -4.654568853556E-03 -3.878162705480E-01  1.556820718768E-01
C44  4.654568853556E-03  3.878162705480E-01 -1.556820718768E-01
C45  3.641964055345E-02 -3.417371013180E-01  2.424610401239E-01
C46 -3.641964055345E-02  3.417371013180E-01 -2.424610401239E-01
C47 -2.478427647607E-01 -3.840527053303E-01  3.317398569407E-02
C48  2.478427647607E-01  3.840527053303E-01 -3.317398569407E-02
C49 -1.006632513370E-01 -4.756950271624E-01 -1.842531235678E-02
C50  1.006632513370E-01  4.756950271624E-01  1.842531235678E-02
C51  1.422539204774E-01 -4.789499770662E-01  1.045990770127E-01
C52 -1.422539204774E-01  4.789499770662E-01 -1.045990770127E-01
H53 -1.348382508619E-01  1.686173180946E-01  3.217100443120E-01
H54  1.348382508619E-01 -1.686173180946E-01 -3.217100443120E-01
H55 -3.659608687850E-02  3.647702390126E-01  4.542943441665E-01
H56  3.659608687850E-02 -3.647702390126E-01 -4.542943441665E-01
H57  3.365348457496E-01 -4.614047727343E-01  4.776453464393E-01
H58 -3.365348457496E-01  4.614047727343E-01 -4.776453464393E-01
H59 -3.872094485451E-01 -4.896051790949E-01  3.697365478849E-01
H60  3.872094485451E-01  4.896051790949E-01 -3.697365478849E-01
H61 -3.153316945823E-02  3.642578259461E-02  1.829855442861E-01
H62  3.153316945823E-02 -3.642578259461E-02 -1.829855442861E-01
H63 -2.831484638710E-01  3.766854404502E-01  2.303161456355E-01
H64  2.831484638710E-01 -3.766854404502E-01 -2.303161456355E-01
H65  7.329903034250E-02 -1.014951728170E-01  4.536141927010E-02
H66 -7.329903034250E-02  1.014951728170E-01 -4.536141927010E-02
H67 -1.784795062059E-01  2.400946883493E-01  9.214479040098E-02
H68  1.784795062059E-01 -2.400946883493E-01 -9.214479040098E-02
H69  3.928828900675E-01 -6.843588320047E-02  2.808616825840E-01
H70 -3.928828900675E-01  6.843588320047E-02 -2.808616825840E-01
H71  4.750088019948E-01  1.255784343551E-02  4.309238795646E-01
H72 -4.750088019948E-01 -1.255784343551E-02 -4.309238795646E-01
H73 -1.832220365914E-01 -8.046793805516E-02  4.956510683419E-01
H74  1.832220365914E-01  8.046793805516E-02 -4.956510683419E-01
H75  8.217806840546E-02 -2.386086853374E-01  4.076410601234E-01
H76 -8.217806840546E-02  2.386086853374E-01 -4.076410601234E-01
H77  4.961997595280E-01 -2.099566630092E-01  1.434096979000E-01
H78 -4.961997595280E-01  2.099566630092E-01 -1.434096979000E-01
H79  1.865719468936E-01 -3.788007847701E-01  2.702122055282E-01
H80 -1.865719468936E-01  3.788007847701E-01 -2.702122055282E-01
H81 -3.984276034085E-01 -3.473685076186E-01  5.591280621323E-03
H82  3.984276034085E-01  3.473685076186E-01 -5.591280621323E-03
H83  2.927757300308E-01  4.844159297736E-01  1.322414478252E-01
H84 -2.927757300308E-01 -4.844159297736E-01 -1.322414478252E-01


#===END

data_OPT_STEP_55

_symmetry_space_group_name_H-M 'P 1'
_cell_length_a      6.11306560
_cell_length_b      7.23385673
_cell_length_c     16.07694116
_cell_angle_alpha   96.605081
_cell_angle_beta   91.028955
_cell_angle_gamma   95.735461

loop_
_atom_site_label
_atom_site_fract_x
_atom_site_fract_y
_atom_site_fract_z
C1  2.735910488994E-02  2.434210211035E-01  3.322109589503E-01
C2 -2.735910488994E-02 -2.434210211035E-01 -3.322109589503E-01
C3  8.214832118359E-02  3.524952822149E-01  4.053507405284E-01
C4 -8.214832118359E-02 -3.524952822149E-01 -4.053507405284E-01
C5  2.961163304476E-01  4.502107976623E-01  4.190078573375E-01
C6 -2.961163304476E-01 -4.502107976623E-01 -4.190078573375E-01
C7  4.500283486076E-01  4.351991320861E-01  3.593925193462E-01
C8 -4.500283486076E-01 -4.351991320861E-01 -3.593925193462E-01
C9  4.004177289840E-01  3.213597392627E-01  2.814638754636E-01
C10 -4.004177289840E-01 -3.213597392627E-01 -2.814638754636E-01
C11  1.829491670057E-01  2.233462955972E-01  2.675358679519E-01
C12 -1.829491670057E-01 -2.233462955972E-01 -2.675358679519E-01
C13  1.312620363324E-01  1.108560051318E-01  1.931644884253E-01
C14 -1.312620363324E-01 -1.108560051318E-01 -1.931644884253E-01
C15  2.863284557046E-01  8.859218244424E-02  1.300307850403E-01
C16 -2.863284557046E-01 -8.859218244424E-02 -1.300307850403E-01
C17 -4.959256317030E-01  1.873448418291E-01  1.438166379533E-01
C18  4.959256317030E-01 -1.873448418291E-01 -1.438166379533E-01
C19 -4.462079245910E-01  3.023642162280E-01  2.199108865517E-01
C20  4.462079245910E-01 -3.023642162280E-01 -2.199108865517E-01
C21  2.360481498296E-01 -2.681345895099E-02  5.547028521993E-02
C22 -2.360481498296E-01  2.681345895099E-02 -5.547028521993E-02
C23  3.910607090047E-01 -4.954428417117E-02 -6.860322280537E-03
C24 -3.910607090047E-01  4.954428417117E-02  6.860322280537E-03
C25 -3.414016823595E-01  1.656412370612E-01  8.190021791281E-02
C26  3.414016823595E-01 -1.656412370612E-01 -8.190021791281E-02
C27 -4.584816095668E-01 -1.073041407020E-01  3.089676320233E-01
C28  4.584816095668E-01  1.073041407020E-01 -3.089676320233E-01
C29 -4.132406579757E-01 -6.460953848391E-02  3.923434418586E-01
C30  4.132406579757E-01  6.460953848391E-02 -3.923434418586E-01
C31 -2.171179396915E-01 -1.150429249818E-01  4.288914112980E-01
C32  2.171179396915E-01  1.150429249818E-01 -4.288914112980E-01
C33 -6.991986304259E-02 -2.035758317857E-01  3.806883921398E-01
C34  6.991986304259E-02  2.035758317857E-01 -3.806883921398E-01
C35 -1.099540520127E-01 -2.512267813906E-01  2.926895118151E-01
C36  1.099540520127E-01  2.512267813906E-01 -2.926895118151E-01
C37 -3.106273999608E-01 -2.027786381892E-01  2.560017373900E-01
C38  3.106273999608E-01  2.027786381892E-01 -2.560017373900E-01
C39 -3.534314821124E-01 -2.469650133255E-01  1.710531043396E-01
C40  3.534314821124E-01  2.469650133255E-01 -1.710531043396E-01
C41 -2.057933841966E-01 -3.392872659958E-01  1.188851174446E-01
C42  2.057933841966E-01  3.392872659958E-01 -1.188851174446E-01
C43 -4.616761359857E-03 -3.879587340815E-01  1.556688030540E-01
C44  4.616761359857E-03  3.879587340815E-01 -1.556688030540E-01
C45  3.649688204316E-02 -3.419602291953E-01  2.424318753134E-01
C46 -3.649688204316E-02  3.419602291953E-01 -2.424318753134E-01
C47 -2.479596730302E-01 -3.840649573550E-01  3.322108580450E-02
C48  2.479596730302E-01  3.840649573550E-01 -3.322108580450E-02
C49 -1.007079133267E-01 -4.756552246086E-01 -1.840424916399E-02
C50  1.007079133267E-01  4.756552246086E-01  1.840424916399E-02
C51  1.423571984146E-01 -4.790508639693E-01  1.045602692121E-01
C52 -1.423571984146E-01  4.790508639693E-01 -1.045602692121E-01
H53 -1.351287672349E-01  1.684702342711E-01  3.217588566535E-01
H54  1.351287672349E-01 -1.684702342711E-01 -3.217588566535E-01
H55 -3.686844910894E-02  3.646211432136E-01  4.543077508042E-01
H56  3.686844910894E-02 -3.646211432136E-01 -4.543077508042E-01
H57  3.364616785555E-01 -4.616975952569E-01  4.776248030486E-01
H58 -3.364616785555E-01  4.616975952569E-01 -4.776248030486E-01
H59 -3.871186194115E-01 -4.899289164797E-01  3.697066023876E-01
H60  3.871186194115E-01  4.899289164797E-01 -3.697066023876E-01
H61 -3.173375190972E-02  3.628629135851E-02  1.830538421838E-01
H62  3.173375190972E-02 -3.628629135851E-02 -1.830538421838E-01
H63 -2.830075767800E-01  3.764201637758E-01  2.302867589887E-01
H64  2.830075767800E-01 -3.764201637758E-01 -2.302867589887E-01
H65  7.309925408560E-02 -1.014626397355E-01  4.540711161458E-02
H66 -7.309925408560E-02  1.014626397355E-01 -4.540711161458E-02
H67 -1.783363101322E-01  2.399922426886E-01  9.209578818246E-02
H68  1.783363101322E-01 -2.399922426886E-01 -9.209578818246E-02
H69  3.926600115063E-01 -6.862468451845E-02  2.809457057578E-01
H70 -3.926600115063E-01  6.862468451845E-02 -2.809457057578E-01
H71  4.749455603284E-01  1.240717020792E-02  4.309589118985E-01
H72 -4.749455603284E-01 -1.240717020792E-02 -4.309589118985E-01
H73 -1.830150859206E-01 -8.057950324471E-02  4.956207296930E-01
H74  1.830150859206E-01  8.057950324471E-02 -4.956207296930E-01
H75  8.232119853533E-02 -2.389195375066E-01  4.075974650170E-01
H76 -8.232119853533E-02  2.389195375066E-01 -4.075974650170E-01
H77  4.960430779169E-01 -2.099618567164E-01  1.434913746269E-01
H78 -4.960430779169E-01  2.099618567164E-01 -1.434913746269E-01
H79  1.867117956862E-01 -3.790905782413E-01  2.701508615426E-01
H80 -1.867117956862E-01  3.790905782413E-01 -2.701508615426E-01
H81 -3.986053115637E-01 -3.473114361319E-01  5.669542881297E-03
H82  3.986053115637E-01  3.473114361319E-01 -5.669542881297E-03
H83  2.928945564532E-01  4.841783282280E-01  1.321747977879E-01
H84 -2.928945564532E-01 -4.841783282280E-01 -1.321747977879E-01


#===END

data_OPT_STEP_56

_symmetry_space_group_name_H-M 'P 1'
_cell_length_a      6.11231561
_cell_length_b      7.23487037
_cell_length_c     16.07765850
_cell_angle_alpha   96.605252
_cell_angle_beta   91.024704
_cell_angle_gamma   95.732436

loop_
_atom_site_label
_atom_site_fract_x
_atom_site_fract_y
_atom_site_fract_z
C1  2.732554659876E-02  2.433905566321E-01  3.322190007323E-01
C2 -2.732554659876E-02 -2.433905566321E-01 -3.322190007323E-01
C3  8.211915310059E-02  3.524588933431E-01  4.053516612061E-01
C4 -8.211915310059E-02 -3.524588933431E-01 -4.053516612061E-01
C5  2.961173625208E-01  4.501411236388E-01  4.190027374176E-01
C6 -2.961173625208E-01 -4.501411236388E-01 -4.190027374176E-01
C7  4.500458002752E-01  4.351229202253E-01  3.593847481234E-01
C8 -4.500458002752E-01 -4.351229202253E-01 -3.593847481234E-01
C9  4.004255443377E-01  3.213018083387E-01  2.814606259060E-01
C10 -4.004255443377E-01 -3.213018083387E-01 -2.814606259060E-01
C11  1.829307331801E-01  2.233133589792E-01  2.675403945461E-01
C12 -1.829307331801E-01 -2.233133589792E-01 -2.675403945461E-01
C13  1.312421489818E-01  1.108307961927E-01  1.931767143025E-01
C14 -1.312421489818E-01 -1.108307961927E-01 -1.931767143025E-01
C15  2.863160409697E-01  8.857614589040E-02  1.300365886017E-01
C16 -2.863160409697E-01 -8.857614589040E-02 -1.300365886017E-01
C17 -4.959143878628E-01  1.873077734894E-01  1.438133898994E-01
C18  4.959143878628E-01 -1.873077734894E-01 -1.438133898994E-01
C19 -4.461956168040E-01  3.023197292816E-01  2.198998059989E-01
C20  4.461956168040E-01 -3.023197292816E-01 -2.198998059989E-01
C21  2.360302591893E-01 -2.681426207632E-02  5.548226300701E-02
C22 -2.360302591893E-01  2.681426207632E-02 -5.548226300701E-02
C23  3.910517816350E-01 -4.953893485378E-02 -6.854432618088E-03
C24 -3.910517816350E-01  4.953893485378E-02  6.854432618088E-03
C25 -3.413836377531E-01  1.656152644282E-01  8.188974976942E-02
C26  3.413836377531E-01 -1.656152644282E-01 -8.188974976942E-02
C27 -4.584910962871E-01 -1.073390530078E-01  3.089795459455E-01
C28  4.584910962871E-01  1.073390530078E-01 -3.089795459455E-01
C29 -4.132231442563E-01 -6.463852910351E-02  3.923485233195E-01
C30  4.132231442563E-01  6.463852910351E-02 -3.923485233195E-01
C31 -2.170821390156E-01 -1.150885384093E-01  4.288856834327E-01
C32  2.170821390156E-01  1.150885384093E-01 -4.288856834327E-01
C33 -6.989444722914E-02 -2.036467196181E-01  3.806785898960E-01
C34  6.989444722914E-02  2.036467196181E-01 -3.806785898960E-01
C35 -1.099515784902E-01 -2.512973457267E-01  2.926858137641E-01
C36  1.099515784902E-01  2.512973457267E-01 -2.926858137641E-01
C37 -3.106414135849E-01 -2.028282522312E-01  2.560094223217E-01
C38  3.106414135849E-01  2.028282522312E-01 -2.560094223217E-01
C39 -3.534557178033E-01 -2.469935827030E-01  1.710656804468E-01
C40  3.534557178033E-01  2.469935827030E-01 -1.710656804468E-01
C41 -2.057982267538E-01 -3.392962646010E-01  1.188908307745E-01
C42  2.057982267538E-01  3.392962646010E-01 -1.188908307745E-01
C43 -4.605247178715E-03 -3.879896237926E-01  1.556633709477E-01
C44  4.605247178715E-03  3.879896237926E-01 -1.556633709477E-01
C45  3.652203015105E-02 -3.420062992766E-01  2.424208849039E-01
C46 -3.652203015105E-02  3.420062992766E-01 -2.424208849039E-01
C47 -2.479895521557E-01 -3.840765927092E-01  3.323325320110E-02
C48  2.479895521557E-01  3.840765927092E-01 -3.323325320110E-02
C49 -1.007165572709E-01 -4.756454689924E-01 -1.839860557677E-02
C50  1.007165572709E-01  4.756454689924E-01  1.839860557677E-02
C51  1.423868895411E-01 -4.790639806979E-01  1.045484149651E-01
C52 -1.423868895411E-01  4.790639806979E-01 -1.045484149651E-01
H53 -1.351818277133E-01  1.684584699453E-01  3.217727236165E-01
H54  1.351818277133E-01 -1.684584699453E-01 -3.217727236165E-01
H55 -3.691778925659E-02  3.646089016073E-01  4.543093087074E-01
H56  3.691778925659E-02 -3.646089016073E-01 -4.543093087074E-01
H57  3.364537985421E-01 -4.617628160301E-01  4.776118937914E-01
H58 -3.364537985421E-01  4.617628160301E-01 -4.776118937914E-01
H59 -3.870836411707E-01 -4.900232019149E-01  3.696919546024E-01
H60  3.870836411707E-01  4.900232019149E-01 -3.696919546024E-01
H61 -3.177477221327E-02  3.628325681879E-02  1.830716927826E-01
H62  3.177477221327E-02 -3.628325681879E-02 -1.830716927826E-01
H63 -2.829663523759E-01  3.763396933971E-01  2.302735158159E-01
H64  2.829663523759E-01 -3.763396933971E-01 -2.302735158159E-01
H65  7.305736079921E-02 -1.014372087913E-01  4.542368065645E-02
H66 -7.305736079921E-02  1.014372087913E-01 -4.542368065645E-02
H67 -1.783097556916E-01  2.399677149519E-01  9.207381779706E-02
H68  1.783097556916E-01 -2.399677149519E-01 -9.207381779706E-02
H69  3.926242572821E-01 -6.866628598573E-02  2.809663209338E-01
H70 -3.926242572821E-01  6.866628598573E-02 -2.809663209338E-01
H71  4.749711819439E-01  1.240126790075E-02  4.309643153652E-01
H72 -4.749711819439E-01 -1.240126790075E-02 -4.309643153652E-01
H73 -1.829290568269E-01 -8.057755726116E-02  4.956075861418E-01
H74  1.829290568269E-01  8.057755726116E-02 -4.956075861418E-01
H75  8.236398935896E-02 -2.389961461172E-01  4.075792115147E-01
H76 -8.236398935896E-02  2.389961461172E-01 -4.075792115147E-01
H77  4.960237612363E-01 -2.099487041365E-01  1.435103749931E-01
H78 -4.960237612363E-01  2.099487041365E-01 -1.435103749931E-01
H79  1.867462716288E-01 -3.791559995254E-01  2.701319774255E-01
H80 -1.867462716288E-01  3.791559995254E-01 -2.701319774255E-01
H81 -3.986446831787E-01 -3.473046690313E-01  5.688895366735E-03
H82  3.986446831787E-01  3.473046690313E-01 -5.688895366735E-03
H83  2.929190920479E-01  4.841261213163E-01  1.321569461036E-01
H84 -2.929190920479E-01 -4.841261213163E-01 -1.321569461036E-01


#===END

data_OPT_STEP_57

_symmetry_space_group_name_H-M 'P 1'
_cell_length_a      6.11233072
_cell_length_b      7.23482073
_cell_length_c     16.07758110
_cell_angle_alpha   96.605388
_cell_angle_beta   91.024829
_cell_angle_gamma   95.732904

loop_
_atom_site_label
_atom_site_fract_x
_atom_site_fract_y
_atom_site_fract_z
C1  2.732516272497E-02  2.433888014288E-01  3.322180609131E-01
C2 -2.732516272497E-02 -2.433888014288E-01 -3.322180609131E-01
C3  8.211779047557E-02  3.524600609554E-01  4.053510219103E-01
C4 -8.211779047557E-02 -3.524600609554E-01 -4.053510219103E-01
C5  2.961174473187E-01  4.501440448655E-01  4.190031139472E-01
C6 -2.961174473187E-01 -4.501440448655E-01 -4.190031139472E-01
C7  4.500450779206E-01  4.351288961764E-01  3.593851490697E-01
C8 -4.500450779206E-01 -4.351288961764E-01 -3.593851490697E-01
C9  4.004225735726E-01  3.213099153737E-01  2.814594656586E-01
C10 -4.004225735726E-01 -3.213099153737E-01 -2.814594656586E-01
C11  1.829295274214E-01  2.233141340768E-01  2.675392330393E-01
C12 -1.829295274214E-01 -2.233141340768E-01 -2.675392330393E-01
C13  1.312422450787E-01  1.108261272298E-01  1.931759701583E-01
C14 -1.312422450787E-01 -1.108261272298E-01 -1.931759701583E-01
C15  2.863161251315E-01  8.857358373925E-02  1.300361019484E-01
C16 -2.863161251315E-01 -8.857358373925E-02 -1.300361019484E-01
C17 -4.959129170845E-01  1.873060643052E-01  1.438144505055E-01
C18  4.959129170845E-01 -1.873060643052E-01 -1.438144505055E-01
C19 -4.461984628978E-01  3.023286867422E-01  2.198991344230E-01
C20  4.461984628978E-01 -3.023286867422E-01 -2.198991344230E-01
C21  2.360293461465E-01 -2.681653118107E-02  5.548082466645E-02
C22 -2.360293461465E-01  2.681653118107E-02 -5.548082466645E-02
C23  3.910503962914E-01 -4.953783275600E-02 -6.855565983353E-03
C24 -3.910503962914E-01  4.953783275600E-02  6.855565983353E-03
C25 -3.413833751204E-01  1.656171307910E-01  8.189085703905E-02
C26  3.413833751204E-01 -1.656171307910E-01 -8.189085703905E-02
C27 -4.584909041698E-01 -1.073354633793E-01  3.089781518884E-01
C28  4.584909041698E-01  1.073354633793E-01 -3.089781518884E-01
C29 -4.132275634422E-01 -6.463724692085E-02  3.923471811770E-01
C30  4.132275634422E-01  6.463724692085E-02 -3.923471811770E-01
C31 -2.170909154571E-01 -1.150923767043E-01  4.288857059635E-01
C32  2.170909154571E-01  1.150923767043E-01 -4.288857059635E-01
C33 -6.990441092989E-02 -2.036545047482E-01  3.806801561575E-01
C34  6.990441092989E-02  2.036545047482E-01 -3.806801561575E-01
C35 -1.099528318485E-01 -2.512980418755E-01  2.926864430669E-01
C36  1.099528318485E-01  2.512980418755E-01 -2.926864430669E-01
C37 -3.106437448698E-01 -2.028301606265E-01  2.560092521514E-01
C38  3.106437448698E-01  2.028301606265E-01 -2.560092521514E-01
C39 -3.534547414868E-01 -2.469921070796E-01  1.710652607726E-01
C40  3.534547414868E-01  2.469921070796E-01 -1.710652607726E-01
C41 -2.057943181793E-01 -3.392913155832E-01  1.188904003281E-01
C42  2.057943181793E-01  3.392913155832E-01 -1.188904003281E-01
C43 -4.600877498262E-03 -3.879841904363E-01  1.556636358052E-01
C44  4.600877498262E-03  3.879841904363E-01 -1.556636358052E-01
C45  3.652579274454E-02 -3.420009858654E-01  2.424216594530E-01
C46 -3.652579274454E-02  3.420009858654E-01 -2.424216594530E-01
C47 -2.479912316973E-01 -3.840789411288E-01  3.323289626015E-02
C48  2.479912316973E-01  3.840789411288E-01 -3.323289626015E-02
C49 -1.007196941773E-01 -4.756494663408E-01 -1.839873516745E-02
C50  1.007196941773E-01  4.756494663408E-01  1.839873516745E-02
C51  1.423930156153E-01 -4.790562215406E-01  1.045488863296E-01
C52 -1.423930156153E-01  4.790562215406E-01 -1.045488863296E-01
H53 -1.351833711419E-01  1.684568829418E-01  3.217712666111E-01
H54  1.351833711419E-01 -1.684568829418E-01 -3.217712666111E-01
H55 -3.691762518014E-02  3.646051919566E-01  4.543089124936E-01
H56  3.691762518014E-02 -3.646051919566E-01 -4.543089124936E-01
H57  3.364562333990E-01 -4.617608891149E-01  4.776127398941E-01
H58 -3.364562333990E-01  4.617608891149E-01 -4.776127398941E-01
H59 -3.870844474614E-01 -4.900150823404E-01  3.696924011751E-01
H60  3.870844474614E-01  4.900150823404E-01 -3.696924011751E-01
H61 -3.177437266761E-02  3.627614499390E-02  1.830710019844E-01
H62  3.177437266761E-02 -3.627614499390E-02 -1.830710019844E-01
H63 -2.829676019415E-01  3.763477383412E-01  2.302730806137E-01
H64  2.829676019415E-01 -3.763477383412E-01 -2.302730806137E-01
H65  7.305387956384E-02 -1.014364476484E-01  4.542096719070E-02
H66 -7.305387956384E-02  1.014364476484E-01 -4.542096719070E-02
H67 -1.783083082233E-01  2.399703122879E-01  9.207507513425E-02
H68  1.783083082233E-01 -2.399703122879E-01 -9.207507513425E-02
H69  3.926230840655E-01 -6.866505041162E-02  2.809644327259E-01
H70 -3.926230840655E-01  6.866505041162E-02 -2.809644327259E-01
H71  4.749633297162E-01  1.239800496426E-02  4.309627697478E-01
H72 -4.749633297162E-01 -1.239800496426E-02 -4.309627697478E-01
H73 -1.829318543807E-01 -8.057177996346E-02  4.956070422719E-01
H74  1.829318543807E-01  8.057177996346E-02 -4.956070422719E-01
H75  8.235249419576E-02 -2.390029693720E-01  4.075842147387E-01
H76 -8.235249419576E-02  2.390029693720E-01 -4.075842147387E-01
H77  4.960288096426E-01 -2.099414968623E-01  1.435091029447E-01
H78 -4.960288096426E-01  2.099414968623E-01 -1.435091029447E-01
H79  1.867502418538E-01 -3.791517391845E-01  2.701329570599E-01
H80 -1.867502418538E-01  3.791517391845E-01 -2.701329570599E-01
H81 -3.986416184045E-01 -3.472987670218E-01  5.687974800233E-03
H82  3.986416184045E-01  3.472987670218E-01 -5.687974800233E-03
H83  2.929238893118E-01  4.841299847250E-01  1.321576692627E-01
H84 -2.929238893118E-01 -4.841299847251E-01 -1.321576692627E-01


#===END

data_OPT_STEP_58

_symmetry_space_group_name_H-M 'P 1'
_cell_length_a      6.11233072
_cell_length_b      7.23482073
_cell_length_c     16.07758110
_cell_angle_alpha   96.605388
_cell_angle_beta   91.024829
_cell_angle_gamma   95.732904

loop_
_atom_site_label
_atom_site_fract_x
_atom_site_fract_y
_atom_site_fract_z
C1  2.732516272497E-02  2.433888014288E-01  3.322180609131E-01
C2 -2.732516272497E-02 -2.433888014288E-01 -3.322180609131E-01
C3  8.211779047557E-02  3.524600609554E-01  4.053510219103E-01
C4 -8.211779047557E-02 -3.524600609554E-01 -4.053510219103E-01
C5  2.961174473187E-01  4.501440448655E-01  4.190031139472E-01
C6 -2.961174473187E-01 -4.501440448655E-01 -4.190031139472E-01
C7  4.500450779206E-01  4.351288961764E-01  3.593851490697E-01
C8 -4.500450779206E-01 -4.351288961764E-01 -3.593851490697E-01
C9  4.004225735726E-01  3.213099153737E-01  2.814594656586E-01
C10 -4.004225735726E-01 -3.213099153737E-01 -2.814594656586E-01
C11  1.829295274214E-01  2.233141340768E-01  2.675392330393E-01
C12 -1.829295274214E-01 -2.233141340768E-01 -2.675392330393E-01
C13  1.312422450787E-01  1.108261272298E-01  1.931759701583E-01
C14 -1.312422450787E-01 -1.108261272298E-01 -1.931759701583E-01
C15  2.863161251315E-01  8.857358373925E-02  1.300361019484E-01
C16 -2.863161251315E-01 -8.857358373925E-02 -1.300361019484E-01
C17 -4.959129170845E-01  1.873060643052E-01  1.438144505055E-01
C18  4.959129170845E-01 -1.873060643052E-01 -1.438144505055E-01
C19 -4.461984628978E-01  3.023286867422E-01  2.198991344230E-01
C20  4.461984628978E-01 -3.023286867422E-01 -2.198991344230E-01
C21  2.360293461465E-01 -2.681653118107E-02  5.548082466645E-02
C22 -2.360293461465E-01  2.681653118107E-02 -5.548082466645E-02
C23  3.910503962914E-01 -4.953783275600E-02 -6.855565983353E-03
C24 -3.910503962914E-01  4.953783275600E-02  6.855565983353E-03
C25 -3.413833751204E-01  1.656171307910E-01  8.189085703905E-02
C26  3.413833751204E-01 -1.656171307910E-01 -8.189085703905E-02
C27 -4.584909041698E-01 -1.073354633793E-01  3.089781518884E-01
C28  4.584909041698E-01  1.073354633793E-01 -3.089781518884E-01
C29 -4.132275634422E-01 -6.463724692085E-02  3.923471811770E-01
C30  4.132275634422E-01  6.463724692085E-02 -3.923471811770E-01
C31 -2.170909154571E-01 -1.150923767043E-01  4.288857059635E-01
C32  2.170909154571E-01  1.150923767043E-01 -4.288857059635E-01
C33 -6.990441092989E-02 -2.036545047482E-01  3.806801561575E-01
C34  6.990441092989E-02  2.036545047482E-01 -3.806801561575E-01
C35 -1.099528318485E-01 -2.512980418755E-01  2.926864430669E-01
C36  1.099528318485E-01  2.512980418755E-01 -2.926864430669E-01
C37 -3.106437448698E-01 -2.028301606265E-01  2.560092521514E-01
C38  3.106437448698E-01  2.028301606265E-01 -2.560092521514E-01
C39 -3.534547414868E-01 -2.469921070796E-01  1.710652607726E-01
C40  3.534547414868E-01  2.469921070796E-01 -1.710652607726E-01
C41 -2.057943181793E-01 -3.392913155832E-01  1.188904003281E-01
C42  2.057943181793E-01  3.392913155832E-01 -1.188904003281E-01
C43 -4.600877498262E-03 -3.879841904363E-01  1.556636358052E-01
C44  4.600877498262E-03  3.879841904363E-01 -1.556636358052E-01
C45  3.652579274454E-02 -3.420009858654E-01  2.424216594530E-01
C46 -3.652579274454E-02  3.420009858654E-01 -2.424216594530E-01
C47 -2.479912316973E-01 -3.840789411288E-01  3.323289626015E-02
C48  2.479912316973E-01  3.840789411288E-01 -3.323289626015E-02
C49 -1.007196941773E-01 -4.756494663408E-01 -1.839873516745E-02
C50  1.007196941773E-01  4.756494663408E-01  1.839873516745E-02
C51  1.423930156153E-01 -4.790562215406E-01  1.045488863296E-01
C52 -1.423930156153E-01  4.790562215406E-01 -1.045488863296E-01
H53 -1.351833711419E-01  1.684568829418E-01  3.217712666111E-01
H54  1.351833711419E-01 -1.684568829418E-01 -3.217712666111E-01
H55 -3.691762518014E-02  3.646051919566E-01  4.543089124936E-01
H56  3.691762518014E-02 -3.646051919566E-01 -4.543089124936E-01
H57  3.364562333990E-01 -4.617608891149E-01  4.776127398941E-01
H58 -3.364562333990E-01  4.617608891149E-01 -4.776127398941E-01
H59 -3.870844474614E-01 -4.900150823404E-01  3.696924011751E-01
H60  3.870844474614E-01  4.900150823404E-01 -3.696924011751E-01
H61 -3.177437266761E-02  3.627614499390E-02  1.830710019844E-01
H62  3.177437266761E-02 -3.627614499390E-02 -1.830710019844E-01
H63 -2.829676019415E-01  3.763477383412E-01  2.302730806137E-01
H64  2.829676019415E-01 -3.763477383412E-01 -2.302730806137E-01
H65  7.305387956384E-02 -1.014364476484E-01  4.542096719070E-02
H66 -7.305387956384E-02  1.014364476484E-01 -4.542096719070E-02
H67 -1.783083082233E-01  2.399703122879E-01  9.207507513425E-02
H68  1.783083082233E-01 -2.399703122879E-01 -9.207507513425E-02
H69  3.926230840655E-01 -6.866505041162E-02  2.809644327259E-01
H70 -3.926230840655E-01  6.866505041162E-02 -2.809644327259E-01
H71  4.749633297162E-01  1.239800496426E-02  4.309627697478E-01
H72 -4.749633297162E-01 -1.239800496426E-02 -4.309627697478E-01
H73 -1.829318543807E-01 -8.057177996346E-02  4.956070422719E-01
H74  1.829318543807E-01  8.057177996346E-02 -4.956070422719E-01
H75  8.235249419576E-02 -2.390029693720E-01  4.075842147387E-01
H76 -8.235249419576E-02  2.390029693720E-01 -4.075842147387E-01
H77  4.960288096426E-01 -2.099414968623E-01  1.435091029447E-01
H78 -4.960288096426E-01  2.099414968623E-01 -1.435091029447E-01
H79  1.867502418538E-01 -3.791517391845E-01  2.701329570599E-01
H80 -1.867502418538E-01  3.791517391845E-01 -2.701329570599E-01
H81 -3.986416184045E-01 -3.472987670218E-01  5.687974800233E-03
H82  3.986416184045E-01  3.472987670218E-01 -5.687974800233E-03
H83  2.929238893118E-01  4.841299847250E-01  1.321576692627E-01
H84 -2.929238893118E-01 -4.841299847251E-01 -1.321576692627E-01


#===END
