###############################################################################
#
#                    CRYSTAL17 CIF FILE
#
###############################################################################

data_OPT_STEP_1

_symmetry_space_group_name_H-M 'P 1'
_cell_length_a      7.90000000
_cell_length_b      6.06000000
_cell_length_c     16.01000000
_cell_angle_alpha  101.900002
_cell_angle_beta  112.599998
_cell_angle_gamma   85.800003

loop_
_atom_site_label
_atom_site_fract_x
_atom_site_fract_y
_atom_site_fract_z
C1  1.484000000000E-01  1.830000000000E-02  4.071000000000E-01
C2 -1.484000000000E-01 -1.830000000000E-02 -4.071000000000E-01
C3 -1.520000000000E-02 -2.634000000000E-01  2.786000000000E-01
C4  1.520000000000E-02  2.634000000000E-01 -2.786000000000E-01
C5  5.190000000000E-02 -1.800000000000E-01  3.706000000000E-01
C6 -5.190000000000E-02  1.800000000000E-01 -3.706000000000E-01
C7  1.707000000000E-01  1.361000000000E-01  3.491000000000E-01
C8 -1.707000000000E-01 -1.361000000000E-01 -3.491000000000E-01
C9  1.030000000000E-01  6.040000000000E-02  2.508000000000E-01
C10 -1.030000000000E-01 -6.040000000000E-02 -2.508000000000E-01
C11  1.274000000000E-01  1.650000000000E-01  1.894000000000E-01
C12 -1.274000000000E-01 -1.650000000000E-01 -1.894000000000E-01
C13  5.720000000000E-02  9.510000000000E-02  9.500000000000E-02
C14 -5.720000000000E-02 -9.510000000000E-02 -9.500000000000E-02
C15  9.250000000000E-02  2.095000000000E-01  3.350000000000E-02
C16 -9.250000000000E-02 -2.095000000000E-01 -3.350000000000E-02
C17 -2.270000000000E-02 -1.227000000000E-01  5.670000000000E-02
C18  2.270000000000E-02  1.227000000000E-01 -5.670000000000E-02
C19 -5.400000000000E-02 -2.325000000000E-01  1.225000000000E-01
C20  5.400000000000E-02  2.325000000000E-01 -1.225000000000E-01
C21  1.500000000000E-02 -1.516000000000E-01  2.149000000000E-01
C22 -1.500000000000E-02  1.516000000000E-01 -2.149000000000E-01
H23  2.020000000000E-01  8.700000000000E-02  4.820000000000E-01
H24 -2.020000000000E-01 -8.700000000000E-02 -4.820000000000E-01
H25 -8.500000000000E-02 -4.270000000000E-01  2.510000000000E-01
H26  8.500000000000E-02  4.270000000000E-01 -2.510000000000E-01
H27  3.300000000000E-02 -2.720000000000E-01  4.200000000000E-01
H28 -3.300000000000E-02  2.720000000000E-01 -4.200000000000E-01
H29  2.460000000000E-01  2.940000000000E-01  3.700000000000E-01
H30 -2.460000000000E-01 -2.940000000000E-01 -3.700000000000E-01
H31  2.020000000000E-01  3.210000000000E-01  2.180000000000E-01
H32 -2.020000000000E-01 -3.210000000000E-01 -2.180000000000E-01
H33  1.620000000000E-01  3.620000000000E-01  6.100000000000E-02
H34 -1.620000000000E-01 -3.620000000000E-01 -6.100000000000E-02
H35 -1.220000000000E-01 -3.950000000000E-01  9.800000000000E-02
H36  1.220000000000E-01  3.950000000000E-01 -9.800000000000E-02
C37 -4.373000000000E-01 -4.267000000000E-01  4.014000000000E-01
C38  4.373000000000E-01  4.267000000000E-01 -4.014000000000E-01
C39 -4.965000000000E-01 -3.195000000000E-01  3.286000000000E-01
C40  4.965000000000E-01  3.195000000000E-01 -3.286000000000E-01
C41 -4.790000000000E-01 -4.124000000000E-01  2.434000000000E-01
C42  4.790000000000E-01  4.124000000000E-01 -2.434000000000E-01
C43  4.582000000000E-01 -2.990000000000E-01  1.686000000000E-01
C44 -4.582000000000E-01  2.990000000000E-01 -1.686000000000E-01
C45  4.810000000000E-01 -3.938000000000E-01  8.460000000000E-02
C46 -4.810000000000E-01  3.938000000000E-01 -8.460000000000E-02
C47  4.231000000000E-01 -2.862000000000E-01  1.000000000000E-02
C48 -4.231000000000E-01  2.862000000000E-01 -1.000000000000E-02
C49 -4.378000000000E-01  3.794000000000E-01  7.540000000000E-02
C50  4.378000000000E-01 -3.794000000000E-01 -7.540000000000E-02
C51 -3.897000000000E-01  2.743000000000E-01  1.483000000000E-01
C52  3.897000000000E-01 -2.743000000000E-01 -1.483000000000E-01
C53 -3.939000000000E-01  3.652000000000E-01  2.342000000000E-01
C54  3.939000000000E-01 -3.652000000000E-01 -2.342000000000E-01
C55 -3.451000000000E-01  2.570000000000E-01  3.094000000000E-01
C56  3.451000000000E-01 -2.570000000000E-01 -3.094000000000E-01
C57 -3.504000000000E-01  3.487000000000E-01  3.925000000000E-01
C58  3.504000000000E-01 -3.487000000000E-01 -3.925000000000E-01
H59 -4.470000000000E-01 -3.390000000000E-01  4.750000000000E-01
H60  4.470000000000E-01  3.390000000000E-01 -4.750000000000E-01
H61  4.470000000000E-01 -1.470000000000E-01  3.350000000000E-01
H62 -4.470000000000E-01  1.470000000000E-01 -3.350000000000E-01
H63  4.010000000000E-01 -1.270000000000E-01  1.780000000000E-01
H64 -4.010000000000E-01  1.270000000000E-01 -1.780000000000E-01
H65  3.620000000000E-01 -1.130000000000E-01  2.000000000000E-02
H66 -3.620000000000E-01  1.130000000000E-01 -2.000000000000E-02
H67 -3.270000000000E-01  1.040000000000E-01  1.420000000000E-01
H68  3.270000000000E-01 -1.040000000000E-01 -1.420000000000E-01
H69 -2.820000000000E-01  8.800000000000E-02  3.040000000000E-01
H70  2.820000000000E-01 -8.800000000000E-02 -3.040000000000E-01
H71 -3.000000000000E-01  2.650000000000E-01  4.530000000000E-01
H72  3.000000000000E-01 -2.650000000000E-01 -4.530000000000E-01


#===END

data_OPT_STEP_2

_symmetry_space_group_name_H-M 'P 1'
_cell_length_a      7.90000000
_cell_length_b      6.06000000
_cell_length_c     16.01000000
_cell_angle_alpha  101.900002
_cell_angle_beta  112.599998
_cell_angle_gamma   85.800003

loop_
_atom_site_label
_atom_site_fract_x
_atom_site_fract_y
_atom_site_fract_z
C1  1.484000000000E-01  1.830000000000E-02  4.071000000000E-01
C2 -1.484000000000E-01 -1.830000000000E-02 -4.071000000000E-01
C3 -1.520000000000E-02 -2.634000000000E-01  2.786000000000E-01
C4  1.520000000000E-02  2.634000000000E-01 -2.786000000000E-01
C5  5.190000000000E-02 -1.800000000000E-01  3.706000000000E-01
C6 -5.190000000000E-02  1.800000000000E-01 -3.706000000000E-01
C7  1.707000000000E-01  1.361000000000E-01  3.491000000000E-01
C8 -1.707000000000E-01 -1.361000000000E-01 -3.491000000000E-01
C9  1.030000000000E-01  6.040000000000E-02  2.508000000000E-01
C10 -1.030000000000E-01 -6.040000000000E-02 -2.508000000000E-01
C11  1.274000000000E-01  1.650000000000E-01  1.894000000000E-01
C12 -1.274000000000E-01 -1.650000000000E-01 -1.894000000000E-01
C13  5.720000000000E-02  9.510000000000E-02  9.500000000000E-02
C14 -5.720000000000E-02 -9.510000000000E-02 -9.500000000000E-02
C15  9.250000000000E-02  2.095000000000E-01  3.350000000000E-02
C16 -9.250000000000E-02 -2.095000000000E-01 -3.350000000000E-02
C17 -2.270000000000E-02 -1.227000000000E-01  5.670000000000E-02
C18  2.270000000000E-02  1.227000000000E-01 -5.670000000000E-02
C19 -5.400000000000E-02 -2.325000000000E-01  1.225000000000E-01
C20  5.400000000000E-02  2.325000000000E-01 -1.225000000000E-01
C21  1.500000000000E-02 -1.516000000000E-01  2.149000000000E-01
C22 -1.500000000000E-02  1.516000000000E-01 -2.149000000000E-01
H23  2.020000000000E-01  8.700000000000E-02  4.820000000000E-01
H24 -2.020000000000E-01 -8.700000000000E-02 -4.820000000000E-01
H25 -8.500000000000E-02 -4.270000000000E-01  2.510000000000E-01
H26  8.500000000000E-02  4.270000000000E-01 -2.510000000000E-01
H27  3.300000000000E-02 -2.720000000000E-01  4.200000000000E-01
H28 -3.300000000000E-02  2.720000000000E-01 -4.200000000000E-01
H29  2.460000000000E-01  2.940000000000E-01  3.700000000000E-01
H30 -2.460000000000E-01 -2.940000000000E-01 -3.700000000000E-01
H31  2.020000000000E-01  3.210000000000E-01  2.180000000000E-01
H32 -2.020000000000E-01 -3.210000000000E-01 -2.180000000000E-01
H33  1.620000000000E-01  3.620000000000E-01  6.100000000000E-02
H34 -1.620000000000E-01 -3.620000000000E-01 -6.100000000000E-02
H35 -1.220000000000E-01 -3.950000000000E-01  9.800000000000E-02
H36  1.220000000000E-01  3.950000000000E-01 -9.800000000000E-02
C37 -4.373000000000E-01 -4.267000000000E-01  4.014000000000E-01
C38  4.373000000000E-01  4.267000000000E-01 -4.014000000000E-01
C39 -4.965000000000E-01 -3.195000000000E-01  3.286000000000E-01
C40  4.965000000000E-01  3.195000000000E-01 -3.286000000000E-01
C41 -4.790000000000E-01 -4.124000000000E-01  2.434000000000E-01
C42  4.790000000000E-01  4.124000000000E-01 -2.434000000000E-01
C43  4.582000000000E-01 -2.990000000000E-01  1.686000000000E-01
C44 -4.582000000000E-01  2.990000000000E-01 -1.686000000000E-01
C45  4.810000000000E-01 -3.938000000000E-01  8.460000000000E-02
C46 -4.810000000000E-01  3.938000000000E-01 -8.460000000000E-02
C47  4.231000000000E-01 -2.862000000000E-01  1.000000000000E-02
C48 -4.231000000000E-01  2.862000000000E-01 -1.000000000000E-02
C49 -4.378000000000E-01  3.794000000000E-01  7.540000000000E-02
C50  4.378000000000E-01 -3.794000000000E-01 -7.540000000000E-02
C51 -3.897000000000E-01  2.743000000000E-01  1.483000000000E-01
C52  3.897000000000E-01 -2.743000000000E-01 -1.483000000000E-01
C53 -3.939000000000E-01  3.652000000000E-01  2.342000000000E-01
C54  3.939000000000E-01 -3.652000000000E-01 -2.342000000000E-01
C55 -3.451000000000E-01  2.570000000000E-01  3.094000000000E-01
C56  3.451000000000E-01 -2.570000000000E-01 -3.094000000000E-01
C57 -3.504000000000E-01  3.487000000000E-01  3.925000000000E-01
C58  3.504000000000E-01 -3.487000000000E-01 -3.925000000000E-01
H59 -4.470000000000E-01 -3.390000000000E-01  4.750000000000E-01
H60  4.470000000000E-01  3.390000000000E-01 -4.750000000000E-01
H61  4.470000000000E-01 -1.470000000000E-01  3.350000000000E-01
H62 -4.470000000000E-01  1.470000000000E-01 -3.350000000000E-01
H63  4.010000000000E-01 -1.270000000000E-01  1.780000000000E-01
H64 -4.010000000000E-01  1.270000000000E-01 -1.780000000000E-01
H65  3.620000000000E-01 -1.130000000000E-01  2.000000000000E-02
H66 -3.620000000000E-01  1.130000000000E-01 -2.000000000000E-02
H67 -3.270000000000E-01  1.040000000000E-01  1.420000000000E-01
H68  3.270000000000E-01 -1.040000000000E-01 -1.420000000000E-01
H69 -2.820000000000E-01  8.800000000000E-02  3.040000000000E-01
H70  2.820000000000E-01 -8.800000000000E-02 -3.040000000000E-01
H71 -3.000000000000E-01  2.650000000000E-01  4.530000000000E-01
H72  3.000000000000E-01 -2.650000000000E-01 -4.530000000000E-01


#===END

data_OPT_STEP_3

_symmetry_space_group_name_H-M 'P 1'
_cell_length_a      7.87450318
_cell_length_b      6.05380474
_cell_length_c     15.97619803
_cell_angle_alpha  101.931049
_cell_angle_beta  112.556414
_cell_angle_gamma   85.649313

loop_
_atom_site_label
_atom_site_fract_x
_atom_site_fract_y
_atom_site_fract_z
C1  1.465400117485E-01  2.059829979474E-02  4.075522311298E-01
C2 -1.465400117485E-01 -2.059829979474E-02 -4.075522311298E-01
C3 -1.460902889967E-02 -2.675388335897E-01  2.790418950112E-01
C4  1.460902889967E-02  2.675388335897E-01 -2.790418950112E-01
C5  5.152987565461E-02 -1.826290136438E-01  3.710761773614E-01
C6 -5.152987565461E-02  1.826290136438E-01 -3.710761773614E-01
C7  1.725466719467E-01  1.374355312304E-01  3.498745279066E-01
C8 -1.725466719467E-01 -1.374355312304E-01 -3.498745279066E-01
C9  1.065442659352E-01  5.913405433741E-02  2.518560521467E-01
C10 -1.065442659352E-01 -5.913405433741E-02 -2.518560521467E-01
C11  1.288216322901E-01  1.693752079989E-01  1.906618678649E-01
C12 -1.288216322901E-01 -1.693752079989E-01 -1.906618678649E-01
C13  6.651611149300E-02  9.113048009541E-02  9.606221504372E-02
C14 -6.651611149300E-02 -9.113048009541E-02 -9.606221504372E-02
C15  9.329070073025E-02  2.111170328346E-01  3.419630570956E-02
C16 -9.329070073025E-02 -2.111170328346E-01 -3.419630570956E-02
C17 -2.958301285677E-02 -1.201335641263E-01  5.701698570625E-02
C18  2.958301285677E-02  1.201335641263E-01 -5.701698570625E-02
C19 -5.389476828455E-02 -2.357131737549E-01  1.224766129050E-01
C20  5.389476828455E-02  2.357131737549E-01 -1.224766129050E-01
C21  9.501060237788E-03 -1.501536679975E-01  2.151037907205E-01
C22 -9.501060237788E-03  1.501536679975E-01 -2.151037907205E-01
H23  2.013054161750E-01  8.776983801037E-02  4.822978965620E-01
H24 -2.013054161750E-01 -8.776983801037E-02 -4.822978965620E-01
H25 -8.648816670095E-02 -4.294089511703E-01  2.512916818147E-01
H26  8.648816670095E-02  4.294089511703E-01 -2.512916818147E-01
H27  3.328506734931E-02 -2.750438583652E-01  4.200283912249E-01
H28 -3.328506734931E-02  2.750438583652E-01 -4.200283912249E-01
H29  2.452584428105E-01  2.975002384629E-01  3.716983941706E-01
H30 -2.452584428105E-01 -2.975002384629E-01 -3.716983941706E-01
H31  2.004582693847E-01  3.285242441055E-01  2.188242716544E-01
H32 -2.004582693847E-01 -3.285242441055E-01 -2.188242716544E-01
H33  1.607713307097E-01  3.676729401759E-01  6.168977100516E-02
H34 -1.607713307097E-01 -3.676729401759E-01 -6.168977100516E-02
H35 -1.222168512144E-01 -3.983632497851E-01  9.734572972386E-02
H36  1.222168512144E-01  3.983632497851E-01 -9.734572972386E-02
C37 -4.363119722162E-01 -4.260904007106E-01  4.018386559557E-01
C38  4.363119722162E-01  4.260904007106E-01 -4.018386559557E-01
C39 -4.949265759502E-01 -3.174886653862E-01  3.292926126029E-01
C40  4.949265759502E-01  3.174886653862E-01 -3.292926126029E-01
C41 -4.798753394689E-01 -4.129176709440E-01  2.432266342999E-01
C42  4.798753394689E-01  4.129176709440E-01 -2.432266342999E-01
C43  4.610753630289E-01 -2.983327752364E-01  1.692316695701E-01
C44 -4.610753630289E-01  2.983327752364E-01 -1.692316695701E-01
C45  4.792185295470E-01 -3.955083416249E-01  8.429807768353E-02
C46 -4.792185295470E-01  3.955083416249E-01 -8.429807768353E-02
C47  4.235552165935E-01 -2.850853002405E-01  1.020904452263E-02
C48 -4.235552165935E-01  2.850853002405E-01 -1.020904452263E-02
C49 -4.404619879784E-01  3.776573342697E-01  7.460812065252E-02
C50  4.404619879784E-01 -3.776573342697E-01 -7.460812065252E-02
C51 -3.866266052312E-01  2.722288482552E-01  1.487738482884E-01
C52  3.866266052312E-01 -2.722288482552E-01 -1.487738482884E-01
C53 -4.009017181792E-01  3.613701553110E-01  2.329529708624E-01
C54  4.009017181792E-01 -3.613701553110E-01 -2.329529708624E-01
C55 -3.415817546690E-01  2.567307617576E-01  3.102899061303E-01
C56  3.415817546690E-01 -2.567307617576E-01 -3.102899061303E-01
C57 -3.534142754861E-01  3.490161819846E-01  3.924424453054E-01
C58  3.534142754861E-01 -3.490161819846E-01 -3.924424453054E-01
H59 -4.455935170266E-01 -3.402176377790E-01  4.735242666772E-01
H60  4.455935170266E-01  3.402176377790E-01 -4.735242666772E-01
H61  4.445390446242E-01 -1.476473239835E-01  3.352486116181E-01
H62 -4.445390446242E-01  1.476473239835E-01 -3.352486116181E-01
H63  4.004036192333E-01 -1.287917995691E-01  1.777759944639E-01
H64 -4.004036192333E-01  1.287917995691E-01 -1.777759944639E-01
H65  3.621659007745E-01 -1.135522834396E-01  1.967472267174E-02
H66 -3.621659007745E-01  1.135522834396E-01 -1.967472267174E-02
H67 -3.251870044683E-01  1.019465667069E-01  1.422109730576E-01
H68  3.251870044683E-01 -1.019465667069E-01 -1.422109730576E-01
H69 -2.787070230459E-01  8.805783700642E-02  3.045697559261E-01
H70  2.787070230459E-01 -8.805783700642E-02 -3.045697559261E-01
H71 -3.024145790285E-01  2.661381003147E-01  4.527346062518E-01
H72  3.024145790285E-01 -2.661381003147E-01 -4.527346062518E-01


#===END

data_OPT_STEP_4

_symmetry_space_group_name_H-M 'P 1'
_cell_length_a      7.79687878
_cell_length_b      6.01714659
_cell_length_c     15.85886548
_cell_angle_alpha  101.905984
_cell_angle_beta  112.550328
_cell_angle_gamma   85.613069

loop_
_atom_site_label
_atom_site_fract_x
_atom_site_fract_y
_atom_site_fract_z
C1  1.427733172096E-01  2.453742806185E-02  4.083314429144E-01
C2 -1.427733172096E-01 -2.453742806185E-02 -4.083314429144E-01
C3 -1.578889833007E-02 -2.760138129242E-01  2.790762308293E-01
C4  1.578889833007E-02  2.760138129242E-01 -2.790762308293E-01
C5  4.952245612666E-02 -1.891971039965E-01  3.716345459303E-01
C6 -4.952245612666E-02  1.891971039965E-01 -3.716345459303E-01
C7  1.682786173061E-01  1.457752858375E-01  3.507934673233E-01
C8 -1.682786173061E-01 -1.457752858375E-01 -3.507934673233E-01
C9  1.007096858889E-01  6.386753098951E-02  2.527538241570E-01
C10 -1.007096858889E-01 -6.386753098951E-02 -2.527538241570E-01
C11  1.236277492954E-01  1.822034331127E-01  1.919450174314E-01
C12 -1.236277492954E-01 -1.822034331127E-01 -1.919450174314E-01
C13  5.956912046982E-02  9.758470078662E-02  9.606411705559E-02
C14 -5.956912046982E-02 -9.758470078662E-02 -9.606411705559E-02
C15  8.966768850268E-02  2.139875497488E-01  3.510291102312E-02
C16 -8.966768850268E-02 -2.139875497488E-01 -3.510291102312E-02
C17 -2.712996267343E-02 -1.230685498141E-01  5.920279343994E-02
C18  2.712996267343E-02  1.230685498141E-01 -5.920279343994E-02
C19 -5.557766915821E-02 -2.396086236890E-01  1.217704941634E-01
C20  5.557766915821E-02  2.396086236890E-01 -1.217704941634E-01
C21  1.090003890469E-02 -1.561451666030E-01  2.159766321140E-01
C22 -1.090003890469E-02  1.561451666030E-01 -2.159766321140E-01
H23  1.936135178895E-01  9.236063141852E-02  4.826413017252E-01
H24 -1.936135178895E-01 -9.236063141852E-02 -4.826413017252E-01
H25 -8.948185220845E-02 -4.369406542572E-01  2.510401572568E-01
H26  8.948185220845E-02  4.369406542572E-01 -2.510401572568E-01
H27  3.035845881517E-02 -2.823165723548E-01  4.192763012863E-01
H28 -3.035845881517E-02  2.823165723548E-01 -4.192763012863E-01
H29  2.389839241151E-01  3.091433612472E-01  3.750420301419E-01
H30 -2.389839241151E-01 -3.091433612472E-01 -3.750420301419E-01
H31  2.030823947645E-01  3.392135330353E-01  2.196568703049E-01
H32 -2.030823947645E-01 -3.392135330353E-01 -2.196568703049E-01
H33  1.654825505366E-01  3.719943707194E-01  6.333181318246E-02
H34 -1.654825505366E-01 -3.719943707194E-01 -6.333181318246E-02
H35 -1.328004512495E-01 -3.985940581167E-01  9.412821996874E-02
H36  1.328004512495E-01  3.985940581167E-01 -9.412821996874E-02
C37 -4.380135161258E-01 -4.270900368799E-01  4.021825620053E-01
C38  4.380135161258E-01  4.270900368799E-01 -4.021825620053E-01
C39 -4.988619547568E-01 -3.166263120505E-01  3.295208399670E-01
C40  4.988619547568E-01  3.166263120505E-01 -3.295208399670E-01
C41 -4.867658027149E-01 -4.167934105084E-01  2.419260947346E-01
C42  4.867658027149E-01  4.167934105084E-01 -2.419260947346E-01
C43  4.561511633100E-01 -3.030406151024E-01  1.683991804961E-01
C44 -4.561511633100E-01  3.030406151024E-01 -1.683991804961E-01
C45  4.765418334647E-01 -3.981407361931E-01  8.387607870763E-02
C46 -4.765418334647E-01  3.981407361931E-01 -8.387607870763E-02
C47  4.220365511024E-01 -2.835211318960E-01  9.926371911650E-03
C48 -4.220365511024E-01  2.835211318960E-01 -9.926371911650E-03
C49 -4.413680871182E-01  3.772018857357E-01  7.410136044047E-02
C50  4.413680871182E-01 -3.772018857357E-01 -7.410136044047E-02
C51 -3.816003376292E-01  2.676407383732E-01  1.500653198657E-01
C52  3.816003376292E-01 -2.676407383732E-01 -1.500653198657E-01
C53 -3.986679498402E-01  3.634966027840E-01  2.335443380803E-01
C54  3.986679498402E-01 -3.634966027840E-01 -2.335443380803E-01
C55 -3.364378907223E-01  2.557874644307E-01  3.117348941272E-01
C56  3.364378907223E-01 -2.557874644307E-01 -3.117348941272E-01
C57 -3.534840124886E-01  3.541765137183E-01  3.932848315212E-01
C58  3.534840124886E-01 -3.541765137183E-01 -3.932848315212E-01
H59 -4.436157931620E-01 -3.448458458316E-01  4.695717091290E-01
H60  4.436157931620E-01  3.448458458316E-01 -4.695717091290E-01
H61  4.469518120310E-01 -1.447888053374E-01  3.371913235324E-01
H62 -4.469518120310E-01  1.447888053374E-01 -3.371913235324E-01
H63  4.012063737011E-01 -1.318155533882E-01  1.774646705449E-01
H64 -4.012063737011E-01  1.318155533882E-01 -1.774646705449E-01
H65  3.629638589698E-01 -1.140183692681E-01  1.847605816829E-02
H66 -3.629638589698E-01  1.140183692681E-01 -1.847605816829E-02
H67 -3.196141714474E-01  9.936498538441E-02  1.434846710701E-01
H68  3.196141714474E-01 -9.936498538441E-02 -1.434846710701E-01
H69 -2.758578202840E-01  8.678151357299E-02  3.050361913764E-01
H70  2.758578202840E-01 -8.678151357299E-02 -3.050361913764E-01
H71 -3.022530027537E-01  2.712868126428E-01  4.528064824273E-01
H72  3.022530027537E-01 -2.712868126428E-01 -4.528064824273E-01


#===END

data_OPT_STEP_5

_symmetry_space_group_name_H-M 'P 1'
_cell_length_a      7.69362490
_cell_length_b      5.97299921
_cell_length_c     15.79968593
_cell_angle_alpha  101.919467
_cell_angle_beta  112.503610
_cell_angle_gamma   85.555093

loop_
_atom_site_label
_atom_site_fract_x
_atom_site_fract_y
_atom_site_fract_z
C1  1.418141455158E-01  2.545563968140E-02  4.091754358656E-01
C2 -1.418141455158E-01 -2.545563968140E-02 -4.091754358656E-01
C3 -2.183842930767E-02 -2.759388586991E-01  2.795961326046E-01
C4  2.183842930767E-02  2.759388586991E-01 -2.795961326046E-01
C5  4.440341921217E-02 -1.886459500075E-01  3.725280131205E-01
C6 -4.440341921217E-02  1.886459500075E-01 -3.725280131205E-01
C7  1.653031699991E-01  1.493945007605E-01  3.513099872911E-01
C8 -1.653031699991E-01 -1.493945007605E-01 -3.513099872911E-01
C9  1.020807793367E-01  6.240782819731E-02  2.532924891195E-01
C10 -1.020807793367E-01 -6.240782819731E-02 -2.532924891195E-01
C11  1.313256032188E-01  1.799434308774E-01  1.931819474355E-01
C12 -1.313256032188E-01 -1.799434308774E-01 -1.931819474355E-01
C13  6.427884576702E-02  9.519266555412E-02  9.659203303896E-02
C14 -6.427884576702E-02 -9.519266555412E-02 -9.659203303896E-02
C15  9.528297086477E-02  2.112657575557E-01  3.576166983990E-02
C16 -9.528297086477E-02 -2.112657575557E-01 -3.576166983990E-02
C17 -2.990956337144E-02 -1.239063187713E-01  5.986766488187E-02
C18  2.990956337144E-02  1.239063187713E-01 -5.986766488187E-02
C19 -5.973585656339E-02 -2.412012591621E-01  1.215708521712E-01
C20  5.973585656339E-02  2.412012591621E-01 -1.215708521712E-01
C21  5.068900864137E-03 -1.554445461976E-01  2.163092374052E-01
C22 -5.068900864137E-03  1.554445461976E-01 -2.163092374052E-01
H23  1.920514149418E-01  9.281111605261E-02  4.835663464438E-01
H24 -1.920514149418E-01 -9.281111605261E-02 -4.835663464438E-01
H25 -8.771622852285E-02 -4.431476964939E-01  2.522175409086E-01
H26  8.771622852285E-02  4.431476964939E-01 -2.522175409086E-01
H27  2.552343803653E-02 -2.826480952777E-01  4.200226256607E-01
H28 -2.552343803653E-02  2.826480952777E-01 -4.200226256607E-01
H29  2.355250218574E-01  3.148043268114E-01  3.768200068414E-01
H30 -2.355250218574E-01 -3.148043268114E-01 -3.768200068414E-01
H31  1.964919084049E-01  3.491628553987E-01  2.201576720788E-01
H32 -1.964919084049E-01 -3.491628553987E-01 -2.201576720788E-01
H33  1.633346748270E-01  3.779977755838E-01  6.327515508725E-02
H34 -1.633346748270E-01 -3.779977755838E-01 -6.327515508725E-02
H35 -1.245063023203E-01 -4.095858229006E-01  9.438834271606E-02
H36  1.245063023203E-01  4.095858229006E-01 -9.438834271606E-02
C37 -4.360922825800E-01 -4.256428178713E-01  4.025133223202E-01
C38  4.360922825800E-01  4.256428178713E-01 -4.025133223202E-01
C39  4.999628555805E-01 -3.141829371714E-01  3.296818759659E-01
C40 -4.999628555805E-01  3.141829371714E-01 -3.296818759659E-01
C41 -4.791030925757E-01 -4.110784972581E-01  2.435254622755E-01
C42  4.791030925757E-01  4.110784972581E-01 -2.435254622755E-01
C43  4.586085559029E-01 -2.998777703320E-01  1.690918682912E-01
C44 -4.586085559029E-01  2.998777703320E-01 -1.690918682912E-01
C45  4.802524949324E-01 -3.953129281217E-01  8.466471078037E-02
C46 -4.802524949324E-01  3.953129281217E-01 -8.466471078037E-02
C47  4.215220342155E-01 -2.809471368498E-01  9.938063841098E-03
C48 -4.215220342155E-01  2.809471368498E-01 -9.938063841098E-03
C49 -4.414818775071E-01  3.768951364462E-01  7.400126724532E-02
C50  4.414818775071E-01 -3.768951364462E-01 -7.400126724532E-02
C51 -3.870463549718E-01  2.608029794958E-01  1.490304033400E-01
C52  3.870463549718E-01 -2.608029794958E-01 -1.490304033400E-01
C53 -4.023092890152E-01  3.606106572470E-01  2.328220592020E-01
C54  4.023092890152E-01 -3.606106572470E-01 -2.328220592020E-01
C55 -3.421931670415E-01  2.483701745277E-01  3.105283696315E-01
C56  3.421931670415E-01 -2.483701745277E-01 -3.105283696315E-01
C57 -3.557072367784E-01  3.526725060984E-01  3.926599312364E-01
C58  3.557072367784E-01 -3.526725060984E-01 -3.926599312364E-01
H59 -4.425645092868E-01 -3.453783236023E-01  4.683000350213E-01
H60  4.425645092868E-01  3.453783236023E-01 -4.683000350213E-01
H61  4.356146235472E-01 -1.466727135304E-01  3.360860931570E-01
H62 -4.356146235472E-01  1.466727135304E-01 -3.360860931570E-01
H63  3.941928841057E-01 -1.325507512580E-01  1.761432308557E-01
H64 -3.941928841057E-01  1.325507512580E-01 -1.761432308557E-01
H65  3.580049830051E-01 -1.135379185566E-01  1.727519395550E-02
H66 -3.580049830051E-01  1.135379185566E-01 -1.727519395550E-02
H67 -3.181695356866E-01  9.590177118977E-02  1.432292675962E-01
H68  3.181695356866E-01 -9.590177118977E-02 -1.432292675962E-01
H69 -2.700896110371E-01  8.530622871694E-02  3.054309084216E-01
H70  2.700896110371E-01 -8.530622871694E-02 -3.054309084216E-01
H71 -3.029243210524E-01  2.691373917061E-01  4.521357496062E-01
H72  3.029243210524E-01 -2.691373917061E-01 -4.521357496062E-01


#===END

data_OPT_STEP_6

_symmetry_space_group_name_H-M 'P 1'
_cell_length_a      7.56695447
_cell_length_b      5.92368553
_cell_length_c     15.78188092
_cell_angle_alpha  102.020996
_cell_angle_beta  112.424872
_cell_angle_gamma   85.538007

loop_
_atom_site_label
_atom_site_fract_x
_atom_site_fract_y
_atom_site_fract_z
C1  1.347367587345E-01  2.888732093581E-02  4.093917948755E-01
C2 -1.347367587345E-01 -2.888732093580E-02 -4.093917948755E-01
C3 -2.225671390865E-02 -2.797362996168E-01  2.799491542380E-01
C4  2.225671390865E-02  2.797362996168E-01 -2.799491542380E-01
C5  4.116055116609E-02 -1.899793217875E-01  3.728930265543E-01
C6 -4.116055116609E-02  1.899793217875E-01 -3.728930265543E-01
C7  1.617786328620E-01  1.514036449401E-01  3.515649052356E-01
C8 -1.617786328620E-01 -1.514036449401E-01 -3.515649052356E-01
C9  9.843594242945E-02  6.361853614942E-02  2.533269773667E-01
C10 -9.843594242945E-02 -6.361853614942E-02 -2.533269773667E-01
C11  1.294824215403E-01  1.819747869111E-01  1.936114009741E-01
C12 -1.294824215403E-01 -1.819747869111E-01 -1.936114009741E-01
C13  6.673885810508E-02  9.361431194216E-02  9.687164233921E-02
C14 -6.673885810508E-02 -9.361431194216E-02 -9.687164233921E-02
C15  9.443396455348E-02  2.141789162132E-01  3.582906277525E-02
C16 -9.443396455348E-02 -2.141789162132E-01 -3.582906277525E-02
C17 -3.009602823898E-02 -1.264256803317E-01  5.999580053045E-02
C18  3.009602823898E-02  1.264256803317E-01 -5.999580053045E-02
C19 -5.714013195754E-02 -2.472830460675E-01  1.218860061477E-01
C20  5.714013195754E-02  2.472830460675E-01 -1.218860061477E-01
C21  4.047690835861E-03 -1.576314223128E-01  2.166082880504E-01
C22 -4.047690835861E-03  1.576314223128E-01 -2.166082880504E-01
H23  1.841177704588E-01  9.680597340894E-02  4.839443734139E-01
H24 -1.841177704588E-01 -9.680597340894E-02 -4.839443734139E-01
H25 -9.217723031975E-02 -4.465221412027E-01  2.521683223268E-01
H26  9.217723031975E-02  4.465221412027E-01 -2.521683223268E-01
H27  2.132421065964E-02 -2.850481234799E-01  4.202240594972E-01
H28 -2.132421065964E-02  2.850481234799E-01 -4.202240594972E-01
H29  2.338010893843E-01  3.174943345728E-01  3.776706702907E-01
H30 -2.338010893843E-01 -3.174943345728E-01 -3.776706702907E-01
H31  1.972309762517E-01  3.510542630737E-01  2.209723058182E-01
H32 -1.972309762517E-01 -3.510542630737E-01 -2.209723058182E-01
H33  1.625509233706E-01  3.828952159799E-01  6.327507153278E-02
H34 -1.625509233706E-01 -3.828952159799E-01 -6.327507153278E-02
H35 -1.238210666464E-01 -4.163621836475E-01  9.454287989210E-02
H36  1.238210666464E-01  4.163621836475E-01 -9.454287989210E-02
C37 -4.368565551494E-01 -4.249955010322E-01  4.022295850171E-01
C38  4.368565551494E-01  4.249955010322E-01 -4.022295850171E-01
C39  4.985998869939E-01 -3.116563649264E-01  3.297161362012E-01
C40 -4.985998869939E-01  3.116563649264E-01 -3.297161362012E-01
C41 -4.860525553570E-01 -4.133754427884E-01  2.424787079108E-01
C42  4.860525553570E-01  4.133754427884E-01 -2.424787079108E-01
C43  4.561359630734E-01 -2.976701969382E-01  1.690194132207E-01
C44 -4.561359630734E-01  2.976701969382E-01 -1.690194132207E-01
C45  4.757529183396E-01 -3.962624057300E-01  8.396039529814E-02
C46 -4.757529183396E-01  3.962624057300E-01 -8.396039529814E-02
C47  4.189587321731E-01 -2.793819678139E-01  9.745029844191E-03
C48 -4.189587321731E-01  2.793819678139E-01 -9.745029844191E-03
C49 -4.398088129509E-01  3.770650684139E-01  7.418973594138E-02
C50  4.398088129509E-01 -3.770650684139E-01 -7.418973594138E-02
C51 -3.852877040507E-01  2.592356534776E-01  1.490199308182E-01
C52  3.852877040507E-01 -2.592356534776E-01 -1.490199308182E-01
C53 -4.033186081071E-01  3.591646254253E-01  2.324472176439E-01
C54  4.033186081071E-01 -3.591646254253E-01 -2.324472176439E-01
C55 -3.403631419001E-01  2.457831635303E-01  3.103299823261E-01
C56  3.403631419001E-01 -2.457831635303E-01 -3.103299823261E-01
C57 -3.543343896773E-01  3.514552426379E-01  3.923878693402E-01
C58  3.543343896773E-01 -3.514552426379E-01 -3.923878693402E-01
H59 -4.447594752444E-01 -3.445593039179E-01  4.684152151306E-01
H60  4.447594752444E-01  3.445593039179E-01 -4.684152151306E-01
H61  4.356360564844E-01 -1.415348278512E-01  3.367359843866E-01
H62 -4.356360564844E-01  1.415348278512E-01 -3.367359843866E-01
H63  3.935168834371E-01 -1.273196909940E-01  1.765539037963E-01
H64 -3.935168834371E-01  1.273196909940E-01 -1.765539037963E-01
H65  3.578278166739E-01 -1.083469354542E-01  1.768463617763E-02
H66 -3.578278166739E-01  1.083469354542E-01 -1.768463617763E-02
H67 -3.236054083768E-01  8.826600880171E-02  1.414369929558E-01
H68  3.236054083768E-01 -8.826600880171E-02 -1.414369929558E-01
H69 -2.747100093013E-01  7.721054209171E-02  3.035275685077E-01
H70  2.747100093013E-01 -7.721054209171E-02 -3.035275685077E-01
H71 -3.010881839431E-01  2.666630770908E-01  4.518192534689E-01
H72  3.010881839431E-01 -2.666630770908E-01 -4.518192534689E-01


#===END

data_OPT_STEP_7

_symmetry_space_group_name_H-M 'P 1'
_cell_length_a      7.29423720
_cell_length_b      5.85013855
_cell_length_c     15.75941087
_cell_angle_alpha  102.285207
_cell_angle_beta  112.317147
_cell_angle_gamma   85.082582

loop_
_atom_site_label
_atom_site_fract_x
_atom_site_fract_y
_atom_site_fract_z
C1  1.268557177237E-01  2.968584798122E-02  4.088444141477E-01
C2 -1.268557177237E-01 -2.968584798122E-02 -4.088444141477E-01
C3 -2.248958289262E-02 -2.883775022432E-01  2.792300876746E-01
C4  2.248958289262E-02  2.883775022432E-01 -2.792300876746E-01
C5  3.542212023659E-02 -1.941932948484E-01  3.720214208392E-01
C6 -3.542212023659E-02  1.941932948484E-01 -3.720214208392E-01
C7  1.542674888707E-01  1.549009479431E-01  3.513775052058E-01
C8 -1.542674888707E-01 -1.549009479431E-01 -3.513775052058E-01
C9  9.416310686651E-02  6.459322986925E-02  2.530874293004E-01
C10 -9.416310686651E-02 -6.459322986925E-02 -2.530874293004E-01
C11  1.196311731018E-01  1.897475471258E-01  1.932463888429E-01
C12 -1.196311731018E-01 -1.897475471258E-01 -1.932463888429E-01
C13  5.865910395535E-02  9.914195018725E-02  9.645051268256E-02
C14 -5.865910395535E-02 -9.914195018725E-02 -9.645051268256E-02
C15  8.723611368131E-02  2.227010054834E-01  3.576027133681E-02
C16 -8.723611368131E-02 -2.227010054834E-01 -3.576027133681E-02
C17 -2.897344713013E-02 -1.296609146541E-01  5.985382830777E-02
C18  2.897344713013E-02  1.296609146541E-01 -5.985382830777E-02
C19 -5.672627003932E-02 -2.536436018069E-01  1.214974893301E-01
C20  5.672627003932E-02  2.536436018069E-01 -1.214974893301E-01
C21  4.178094790854E-03 -1.631004567414E-01  2.162570212784E-01
C22 -4.178094790854E-03  1.631004567414E-01 -2.162570212784E-01
H23  1.750615595169E-01  9.900039891535E-02  4.835301668867E-01
H24 -1.750615595169E-01 -9.900039891535E-02 -4.835301668867E-01
H25 -9.120075635939E-02 -4.592018557445E-01  2.511662112639E-01
H26  9.120075635939E-02  4.592018557445E-01 -2.511662112639E-01
H27  1.542926108574E-02 -2.917227579078E-01  4.192093166500E-01
H28 -1.542926108574E-02  2.917227579078E-01 -4.192093166500E-01
H29  2.248096109751E-01  3.254873360535E-01  3.782967661763E-01
H30 -2.248096109751E-01 -3.254873360535E-01 -3.782967661763E-01
H31  1.962795346601E-01  3.553651284135E-01  2.213771906984E-01
H32 -1.962795346601E-01 -3.553651284135E-01 -2.213771906984E-01
H33  1.617410001470E-01  3.896665237701E-01  6.387330171937E-02
H34 -1.617410001470E-01 -3.896665237701E-01 -6.387330171937E-02
H35 -1.315141456569E-01 -4.206758275098E-01  9.327567134851E-02
H36  1.315141456569E-01  4.206758275098E-01 -9.327567134851E-02
C37 -4.393482192548E-01 -4.268503345658E-01  4.018667519164E-01
C38  4.393482192548E-01  4.268503345658E-01 -4.018667519164E-01
C39  4.970987288661E-01 -3.095411783885E-01  3.302058983963E-01
C40 -4.970987288661E-01  3.095411783885E-01 -3.302058983963E-01
C41 -4.878522648558E-01 -4.133997322605E-01  2.425723220994E-01
C42  4.878522648558E-01  4.133997322605E-01 -2.425723220994E-01
C43  4.542022985827E-01 -2.942528674447E-01  1.696368261126E-01
C44 -4.542022985827E-01  2.942528674447E-01 -1.696368261126E-01
C45  4.770497644694E-01 -3.935152791135E-01  8.474637979612E-02
C46 -4.770497644694E-01  3.935152791135E-01 -8.474637979612E-02
C47  4.260024656878E-01 -2.702076652636E-01  1.218480539884E-02
C48 -4.260024656878E-01  2.702076652636E-01 -1.218480539884E-02
C49 -4.511171422118E-01  3.673822718344E-01  7.144742319993E-02
C50  4.511171422118E-01 -3.673822718344E-01 -7.144742319993E-02
C51 -3.910525936929E-01  2.497390211386E-01  1.467964273224E-01
C52  3.910525936929E-01 -2.497390211386E-01 -1.467964273224E-01
C53 -4.112416877520E-01  3.498682969302E-01  2.302793690823E-01
C54  4.112416877520E-01 -3.498682969302E-01 -2.302793690823E-01
C55 -3.440104655491E-01  2.357808480638E-01  3.084629482500E-01
C56  3.440104655491E-01 -2.357808480638E-01 -3.084629482500E-01
C57 -3.578041799223E-01  3.428078452767E-01  3.909105228054E-01
C58  3.578041799223E-01 -3.428078452767E-01 -3.909105228054E-01
H59 -4.464950633620E-01 -3.446433528501E-01  4.693603297688E-01
H60  4.464950633620E-01  3.446433528501E-01 -4.693603297688E-01
H61  4.363537876367E-01 -1.342258973700E-01  3.385197799297E-01
H62 -4.363537876367E-01  1.342258973700E-01 -3.385197799297E-01
H63  3.929338488410E-01 -1.190515038901E-01  1.782264531843E-01
H64 -3.929338488410E-01  1.190515038901E-01 -1.782264531843E-01
H65  3.612815605330E-01 -9.663394551921E-02  2.041443053670E-02
H66 -3.612815605330E-01  9.663394551921E-02 -2.041443053670E-02
H67 -3.235497437276E-01  7.776574633986E-02  1.393116042850E-01
H68  3.235497437276E-01 -7.776574633986E-02 -1.393116042850E-01
H69 -2.817455463654E-01  6.091753017740E-02  3.001070422560E-01
H70  2.817455463654E-01 -6.091753017740E-02 -3.001070422560E-01
H71 -3.015484337959E-01  2.575948704059E-01  4.506866678340E-01
H72  3.015484337959E-01 -2.575948704059E-01 -4.506866678340E-01


#===END

data_OPT_STEP_8

_symmetry_space_group_name_H-M 'P 1'
_cell_length_a      7.22645365
_cell_length_b      5.85352496
_cell_length_c     15.74611147
_cell_angle_alpha  102.246901
_cell_angle_beta  112.228138
_cell_angle_gamma   85.181116

loop_
_atom_site_label
_atom_site_fract_x
_atom_site_fract_y
_atom_site_fract_z
C1  1.268502494293E-01  2.811772744334E-02  4.086520623592E-01
C2 -1.268502494293E-01 -2.811772744334E-02 -4.086520623592E-01
C3 -2.687123521795E-02 -2.873292187736E-01  2.787690558742E-01
C4  2.687123521795E-02  2.873292187736E-01 -2.787690558742E-01
C5  3.425388783555E-02 -1.956939105673E-01  3.716966764830E-01
C6 -3.425388783555E-02  1.956939105673E-01 -3.716966764830E-01
C7  1.535533499146E-01  1.548238850514E-01  3.512947501048E-01
C8 -1.535533499146E-01 -1.548238850514E-01 -3.512947501048E-01
C9  9.395786745825E-02  6.453064343807E-02  2.530628093292E-01
C10 -9.395786745825E-02 -6.453064343807E-02 -2.530628093292E-01
C11  1.209847817424E-01  1.892082590721E-01  1.932985533686E-01
C12 -1.209847817424E-01 -1.892082590721E-01 -1.932985533686E-01
C13  5.954637301569E-02  9.896154800073E-02  9.653668535039E-02
C14 -5.954637301569E-02 -9.896154800073E-02 -9.653668535039E-02
C15  8.951501454328E-02  2.218487297117E-01  3.595809281199E-02
C16 -8.951501454328E-02 -2.218487297117E-01 -3.595809281199E-02
C17 -3.057593192523E-02 -1.291038323938E-01  5.967795008150E-02
C18  3.057593192523E-02  1.291038323938E-01 -5.967795008150E-02
C19 -5.995984115048E-02 -2.524992480086E-01  1.211776867562E-01
C20  5.995984115048E-02  2.524992480086E-01 -1.211776867562E-01
C21  1.050888795579E-03 -1.621548301269E-01  2.159399256956E-01
C22 -1.050888795579E-03  1.621548301269E-01 -2.159399256956E-01
H23  1.730295172550E-01  9.884436144099E-02  4.831708324462E-01
H24 -1.730295172550E-01 -9.884436144099E-02 -4.831708324462E-01
H25 -9.517769945642E-02 -4.586896310398E-01  2.506683585549E-01
H26  9.517769945642E-02  4.586896310398E-01 -2.506683585549E-01
H27  1.401386134477E-02 -2.937195092608E-01  4.187654179375E-01
H28 -1.401386134477E-02  2.937195092608E-01 -4.187654179375E-01
H29  2.226016443340E-01  3.269581015662E-01  3.783027075120E-01
H30 -2.226016443340E-01 -3.269581015662E-01 -3.783027075120E-01
H31  1.923691168279E-01  3.592342343381E-01  2.212058330070E-01
H32 -1.923691168279E-01 -3.592342343381E-01 -2.212058330070E-01
H33  1.606627986477E-01  3.915920058226E-01  6.388731843336E-02
H34 -1.606627986477E-01 -3.915920058226E-01 -6.388731843336E-02
H35 -1.304482987268E-01 -4.227204251788E-01  9.323710418680E-02
H36  1.304482987268E-01  4.227204251788E-01 -9.323710418680E-02
C37 -4.399892489637E-01 -4.276845566447E-01  4.020100415049E-01
C38  4.399892489637E-01  4.276845566447E-01 -4.020100415049E-01
C39  4.953535734984E-01 -3.109300854519E-01  3.301807446471E-01
C40 -4.953535734984E-01  3.109300854519E-01 -3.301807446471E-01
C41 -4.891390081369E-01 -4.143053293397E-01  2.424773149816E-01
C42  4.891390081369E-01  4.143053293397E-01 -2.424773149816E-01
C43  4.518511183829E-01 -2.958768796771E-01  1.693931173720E-01
C44 -4.518511183829E-01  2.958768796771E-01 -1.693931173720E-01
C45  4.745979423150E-01 -3.949102310981E-01  8.436197395984E-02
C46 -4.745979423150E-01  3.949102310981E-01 -8.436197395984E-02
C47  4.213748774300E-01 -2.730232169919E-01  1.141527108029E-02
C48 -4.213748774300E-01  2.730232169919E-01 -1.141527108029E-02
C49 -4.458136871408E-01  3.705248027254E-01  7.242471474230E-02
C50  4.458136871408E-01 -3.705248027254E-01 -7.242471474230E-02
C51 -3.906368345311E-01  2.503721746845E-01  1.468224964111E-01
C52  3.906368345311E-01 -2.503721746845E-01 -1.468224964111E-01
C53 -4.098291336007E-01  3.507984869115E-01  2.305758847683E-01
C54  4.098291336007E-01 -3.507984869115E-01 -2.305758847683E-01
C55 -3.456744672362E-01  2.350368426133E-01  3.080794987773E-01
C56  3.456744672362E-01 -2.350368426133E-01 -3.080794987773E-01
C57 -3.586691479086E-01  3.420780674172E-01  3.908311892771E-01
C58  3.586691479086E-01 -3.420780674172E-01 -3.908311892771E-01
H59 -4.467322930985E-01 -3.455206276045E-01  4.694114231597E-01
H60  4.467322930985E-01  3.455206276045E-01 -4.694114231597E-01
H61  4.355832747013E-01 -1.350671804551E-01  3.387968331247E-01
H62 -4.355832747013E-01  1.350671804551E-01 -3.387968331247E-01
H63  3.930665443033E-01 -1.193789411618E-01  1.785888476448E-01
H64 -3.930665443033E-01  1.193789411618E-01 -1.785888476448E-01
H65  3.603660510533E-01 -9.743307255187E-02  2.041487258570E-02
H66 -3.603660510533E-01  9.743307255187E-02 -2.041487258570E-02
H67 -3.266238779514E-01  7.627791726030E-02  1.386317398541E-01
H68  3.266238779514E-01 -7.627791726030E-02 -1.386317398541E-01
H69 -2.818696893797E-01  6.097713628985E-02  2.998491753416E-01
H70  2.818696893797E-01 -6.097713628985E-02 -2.998491753416E-01
H71 -3.021900841549E-01  2.567773669942E-01  4.505401437844E-01
H72  3.021900841549E-01 -2.567773669942E-01 -4.505401437844E-01


#===END

data_OPT_STEP_9

_symmetry_space_group_name_H-M 'P 1'
_cell_length_a      7.26696781
_cell_length_b      5.88327144
_cell_length_c     15.73435473
_cell_angle_alpha  102.144795
_cell_angle_beta  112.187026
_cell_angle_gamma   85.515522

loop_
_atom_site_label
_atom_site_fract_x
_atom_site_fract_y
_atom_site_fract_z
C1  1.288979449131E-01  3.020780039445E-02  4.094413272093E-01
C2 -1.288979449131E-01 -3.020780039445E-02 -4.094413272093E-01
C3 -2.429187446334E-02 -2.844202255950E-01  2.799490578405E-01
C4  2.429187446334E-02  2.844202255950E-01 -2.799490578405E-01
C5  3.784726440532E-02 -1.937681860802E-01  3.729246815781E-01
C6 -3.784726440532E-02  1.937681860802E-01 -3.729246815781E-01
C7  1.550616316401E-01  1.564217437472E-01  3.517692194634E-01
C8 -1.550616316401E-01 -1.564217437472E-01 -3.517692194634E-01
C9  9.403894366230E-02  6.687529185112E-02  2.534658984744E-01
C10 -9.403894366230E-02 -6.687529185112E-02 -2.534658984744E-01
C11  1.227844534623E-01  1.891267877627E-01  1.934918098871E-01
C12 -1.227844534623E-01 -1.891267877627E-01 -1.934918098871E-01
C13  6.229335716354E-02  9.790653849107E-02  9.674573246520E-02
C14 -6.229335716354E-02 -9.790653849107E-02 -9.674573246520E-02
C15  9.023249349177E-02  2.201799577135E-01  3.560054815246E-02
C16 -9.023249349177E-02 -2.201799577135E-01 -3.560054815246E-02
C17 -2.995869782864E-02 -1.285310317360E-01  6.010945889167E-02
C18  2.995869782864E-02  1.285310317360E-01 -6.010945889167E-02
C19 -5.792031838164E-02 -2.509935667163E-01  1.220666606463E-01
C20  5.792031838164E-02  2.509935667163E-01 -1.220666606463E-01
C21  2.348780443976E-03 -1.597500808652E-01  2.167853721840E-01
C22 -2.348780443976E-03  1.597500808652E-01 -2.167853721840E-01
H23  1.751741060929E-01  1.006490841949E-01  4.839199467516E-01
H24 -1.751741060929E-01 -1.006490841949E-01 -4.839199467516E-01
H25 -9.448995612225E-02 -4.537188564358E-01  2.518780374716E-01
H26  9.448995612225E-02  4.537188564358E-01 -2.518780374716E-01
H27  1.701939043550E-02 -2.912612065356E-01  4.199474865818E-01
H28 -1.701939043550E-02  2.912612065356E-01 -4.199474865818E-01
H29  2.227360540875E-01  3.283855854594E-01  3.785854310464E-01
H30 -2.227360540875E-01 -3.283855854594E-01 -3.785854310464E-01
H31  1.933817419746E-01  3.589138078917E-01  2.210811292174E-01
H32 -1.933817419746E-01 -3.589138078917E-01 -2.210811292174E-01
H33  1.594143199780E-01  3.907315276456E-01  6.302924391361E-02
H34 -1.594143199780E-01 -3.907315276456E-01 -6.302924391361E-02
H35 -1.271860175527E-01 -4.212583740178E-01  9.452224329533E-02
H36  1.271860175527E-01  4.212583740178E-01 -9.452224329533E-02
C37 -4.410536871781E-01 -4.290246039399E-01  4.019901389616E-01
C38  4.410536871781E-01  4.290246039399E-01 -4.019901389616E-01
C39  4.951951542008E-01 -3.124463297611E-01  3.302407895783E-01
C40 -4.951951542008E-01  3.124463297611E-01 -3.302407895783E-01
C41 -4.919123200230E-01 -4.163896659549E-01  2.420915688919E-01
C42  4.919123200230E-01  4.163896659549E-01 -2.420915688919E-01
C43  4.520738138791E-01 -2.974646206701E-01  1.693537704962E-01
C44 -4.520738138791E-01  2.974646206701E-01 -1.693537704962E-01
C45  4.739622361862E-01 -3.960845920206E-01  8.419573141287E-02
C46 -4.739622361862E-01  3.960845920206E-01 -8.419573141287E-02
C47  4.215048620757E-01 -2.749155933142E-01  1.121209293808E-02
C48 -4.215048620757E-01  2.749155933142E-01 -1.121209293808E-02
C49 -4.460744980100E-01  3.720134687347E-01  7.258324324545E-02
C50  4.460744980100E-01 -3.720134687347E-01 -7.258324324545E-02
C51 -3.923839455408E-01  2.516254876797E-01  1.468383713002E-01
C52  3.923839455408E-01 -2.516254876797E-01 -1.468383713002E-01
C53 -4.121064983924E-01  3.516751202814E-01  2.305431591256E-01
C54  4.121064983924E-01 -3.516751202814E-01 -2.305431591256E-01
C55 -3.480557448716E-01  2.360388003659E-01  3.080299615077E-01
C56  3.480557448716E-01 -2.360388003659E-01 -3.080299615077E-01
C57 -3.603565470771E-01  3.428766119738E-01  3.909587323273E-01
C58  3.603565470771E-01 -3.428766119738E-01 -3.909587323273E-01
H59 -4.481387839618E-01 -3.473037799511E-01  4.691806907467E-01
H60  4.481387839618E-01  3.473037799511E-01 -4.691806907467E-01
H61  4.365030525785E-01 -1.375737069686E-01  3.389957160639E-01
H62 -4.365030525785E-01  1.375737069686E-01 -3.389957160639E-01
H63  3.927108002759E-01 -1.228782852704E-01  1.782695872249E-01
H64 -3.927108002759E-01  1.228782852704E-01 -1.782695872249E-01
H65  3.600131520737E-01 -1.013991061378E-01  1.989808229307E-02
H66 -3.600131520737E-01  1.013991061378E-01 -1.989808229307E-02
H67 -3.296789431217E-01  7.849643161019E-02  1.385306774253E-01
H68  3.296789431217E-01 -7.849643161019E-02 -1.385306774253E-01
H69 -2.850350354157E-01  6.326952023060E-02  2.996628982559E-01
H70  2.850350354157E-01 -6.326952023060E-02 -2.996628982559E-01
H71 -3.053679296452E-01  2.568514926041E-01  4.503719780055E-01
H72  3.053679296452E-01 -2.568514926041E-01 -4.503719780055E-01


#===END

data_OPT_STEP_10

_symmetry_space_group_name_H-M 'P 1'
_cell_length_a      7.27208405
_cell_length_b      5.91381217
_cell_length_c     15.72516994
_cell_angle_alpha  101.991318
_cell_angle_beta  112.250161
_cell_angle_gamma   85.637197

loop_
_atom_site_label
_atom_site_fract_x
_atom_site_fract_y
_atom_site_fract_z
C1  1.266212750762E-01  3.482906815708E-02  4.099217958177E-01
C2 -1.266212750762E-01 -3.482906815708E-02 -4.099217958177E-01
C3 -2.479298823373E-02 -2.799661342321E-01  2.808881402505E-01
C4  2.479298823373E-02  2.799661342321E-01 -2.808881402505E-01
C5  3.580498816326E-02 -1.881349729623E-01  3.737757407713E-01
C6 -3.580498816326E-02  1.881349729623E-01 -3.737757407713E-01
C7  1.532277760966E-01  1.595519041223E-01  3.519425859036E-01
C8 -1.532277760966E-01 -1.595519041223E-01 -3.519425859036E-01
C9  9.240300391965E-02  6.959452077727E-02  2.536542682868E-01
C10 -9.240300391965E-02 -6.959452077727E-02 -2.536542682868E-01
C11  1.198292754451E-01  1.914738507928E-01  1.932610806714E-01
C12 -1.198292754451E-01 -1.914738507928E-01 -1.932610806714E-01
C13  6.061289952791E-02  9.914090948568E-02  9.658245144905E-02
C14 -6.061289952791E-02 -9.914090948568E-02 -9.658245144905E-02
C15  8.807504709475E-02  2.203550726910E-01  3.508048929275E-02
C16 -8.807504709475E-02 -2.203550726910E-01 -3.508048929275E-02
C17 -2.974054103286E-02 -1.273969180821E-01  6.049417859378E-02
C18  2.974054103286E-02  1.273969180821E-01 -6.049417859378E-02
C19 -5.674615402832E-02 -2.491966374545E-01  1.228393848687E-01
C20  5.674615402832E-02  2.491966374545E-01 -1.228393848687E-01
C21  1.891126095666E-03 -1.566565734238E-01  2.174479131349E-01
C22 -1.891126095666E-03  1.566565734238E-01 -2.174479131349E-01
H23  1.740730327060E-01  1.045049268673E-01  4.844350784790E-01
H24 -1.740730327060E-01 -1.045049268673E-01 -4.844350784790E-01
H25 -9.443611327877E-02 -4.488063383073E-01  2.531272418619E-01
H26  9.443611327877E-02  4.488063383073E-01 -2.531272418619E-01
H27  1.488203611899E-02 -2.850200488652E-01  4.209327928268E-01
H28 -1.488203611899E-02  2.850200488652E-01 -4.209327928268E-01
H29  2.211238562952E-01  3.301859595437E-01  3.784243369573E-01
H30 -2.211238562952E-01 -3.301859595437E-01 -3.784243369573E-01
H31  1.898325346320E-01  3.607499330691E-01  2.205278676526E-01
H32 -1.898325346320E-01 -3.607499330691E-01 -2.205278676526E-01
H33  1.569703291220E-01  3.902292103516E-01  6.219296110816E-02
H34 -1.569703291220E-01 -3.902292103516E-01 -6.219296110816E-02
H35 -1.253596971515E-01 -4.190024479688E-01  9.565296018484E-02
H36  1.253596971515E-01  4.190024479688E-01 -9.565296018484E-02
C37 -4.409943947252E-01 -4.305105145895E-01  4.020943791454E-01
C38  4.409943947252E-01  4.305105145895E-01 -4.020943791454E-01
C39  4.948292030668E-01 -3.147050017452E-01  3.301316783639E-01
C40 -4.948292030668E-01  3.147050017452E-01 -3.301316783639E-01
C41 -4.902053992801E-01 -4.164423011074E-01  2.424595891924E-01
C42  4.902053992801E-01  4.164423011074E-01 -2.424595891924E-01
C43  4.522507366501E-01 -2.990499869379E-01  1.692837975037E-01
C44 -4.522507366501E-01  2.990499869379E-01 -1.692837975037E-01
C45  4.735884139413E-01 -3.970271439916E-01  8.406077759885E-02
C46 -4.735884139413E-01  3.970271439916E-01 -8.406077759885E-02
C47  4.193189939901E-01 -2.774932893211E-01  1.059937573904E-02
C48 -4.193189939901E-01  2.774932893211E-01 -1.059937573904E-02
C49 -4.434231033162E-01  3.742560192198E-01  7.323444390893E-02
C50  4.434231033162E-01 -3.742560192198E-01 -7.323444390893E-02
C51 -3.872522077432E-01  2.555680176163E-01  1.480802730752E-01
C52  3.872522077432E-01 -2.555680176163E-01 -1.480802730752E-01
C53 -4.082754898012E-01  3.544762671383E-01  2.315483803485E-01
C54  4.082754898012E-01 -3.544762671383E-01 -2.315483803485E-01
C55 -3.448680521612E-01  2.386423815352E-01  3.089490299640E-01
C56  3.448680521612E-01 -2.386423815352E-01 -3.089490299640E-01
C57 -3.596469519034E-01  3.432658023898E-01  3.914714980904E-01
C58  3.596469519034E-01 -3.432658023898E-01 -3.914714980904E-01
H59 -4.484114402698E-01 -3.490264225691E-01  4.691830434006E-01
H60  4.484114402698E-01  3.490264225691E-01 -4.691830434006E-01
H61  4.330423718573E-01 -1.425167137425E-01  3.382364835438E-01
H62 -4.330423718573E-01  1.425167137425E-01 -3.382364835438E-01
H63  3.909148702552E-01 -1.266065488650E-01  1.776845787328E-01
H64 -3.909148702552E-01  1.266065488650E-01 -1.776845787328E-01
H65  3.572051660020E-01 -1.054412601908E-01  1.898616514353E-02
H66 -3.572051660020E-01  1.054412601908E-01 -1.898616514353E-02
H67 -3.243726390924E-01  8.369229630541E-02  1.399601209325E-01
H68  3.243726390924E-01 -8.369229630541E-02 -1.399601209325E-01
H69 -2.825031095408E-01  6.665001503887E-02  3.005809026029E-01
H70  2.825031095408E-01 -6.665001503887E-02 -3.005809026029E-01
H71 -3.056801554168E-01  2.566460383127E-01  4.507397644312E-01
H72  3.056801554168E-01 -2.566460383127E-01 -4.507397644312E-01


#===END

data_OPT_STEP_11

_symmetry_space_group_name_H-M 'P 1'
_cell_length_a      7.27801118
_cell_length_b      5.91855882
_cell_length_c     15.72112644
_cell_angle_alpha  101.984500
_cell_angle_beta  112.240104
_cell_angle_gamma   85.635951

loop_
_atom_site_label
_atom_site_fract_x
_atom_site_fract_y
_atom_site_fract_z
C1  1.270675615940E-01  3.554556788065E-02  4.101406705438E-01
C2 -1.270675615940E-01 -3.554556788065E-02 -4.101406705438E-01
C3 -2.418368343712E-02 -2.792298011402E-01  2.812117747293E-01
C4  2.418368343712E-02  2.792298011402E-01 -2.812117747293E-01
C5  3.623908200196E-02 -1.871434376600E-01  3.740944360414E-01
C6 -3.623908200196E-02  1.871434376600E-01 -3.740944360414E-01
C7  1.536101741532E-01  1.599539916066E-01  3.520656574444E-01
C8 -1.536101741532E-01 -1.599539916066E-01 -3.520656574444E-01
C9  9.303123968164E-02  6.968922537789E-02  2.537854907221E-01
C10 -9.303123968164E-02 -6.968922537789E-02 -2.537854907221E-01
C11  1.199723034606E-01  1.915728860692E-01  1.932726104823E-01
C12 -1.199723034606E-01 -1.915728860692E-01 -1.932726104823E-01
C13  6.057284533596E-02  9.928322704057E-02  9.658842700383E-02
C14 -6.057284533596E-02 -9.928322704057E-02 -9.658842700383E-02
C15  8.794625431540E-02  2.201585876338E-01  3.498501741976E-02
C16 -8.794625431540E-02 -2.201585876338E-01 -3.498501741976E-02
C17 -2.968224111362E-02 -1.271185884348E-01  6.059251255539E-02
C18  2.968224111362E-02  1.271185884348E-01 -6.059251255539E-02
C19 -5.636363688893E-02 -2.487736233792E-01  1.230520069650E-01
C20  5.636363688893E-02  2.487736233792E-01 -1.230520069650E-01
C21  2.386198504568E-03 -1.562418458907E-01  2.176662812149E-01
C22 -2.386198504568E-03  1.562418458907E-01 -2.176662812149E-01
H23  1.746848385468E-01  1.051980505423E-01  4.846631194878E-01
H24 -1.746848385468E-01 -1.051980505423E-01 -4.846631194878E-01
H25 -9.348698098625E-02 -4.481226317668E-01  2.535528743890E-01
H26  9.348698098625E-02  4.481226317668E-01 -2.535528743890E-01
H27  1.552304589645E-02 -2.839109385886E-01  4.213292797638E-01
H28 -1.552304589645E-02  2.839109385886E-01 -4.213292797638E-01
H29  2.213686866362E-01  3.304291403351E-01  3.784672058378E-01
H30 -2.213686866362E-01 -3.304291403351E-01 -3.784672058378E-01
H31  1.899106760419E-01  3.606915014511E-01  2.204628955895E-01
H32 -1.899106760419E-01 -3.606915014511E-01 -2.204628955895E-01
H33  1.571414539112E-01  3.896436490027E-01  6.204732457442E-02
H34 -1.571414539112E-01 -3.896436490027E-01 -6.204732457442E-02
H35 -1.250011295364E-01 -4.183749998059E-01  9.593090348065E-02
H36  1.250011295364E-01  4.183749998059E-01 -9.593090348065E-02
C37 -4.414009439730E-01 -4.306788934682E-01  4.020968356937E-01
C38  4.414009439730E-01  4.306788934682E-01 -4.020968356937E-01
C39  4.947159937282E-01 -3.148058219576E-01  3.301661487599E-01
C40 -4.947159937282E-01  3.148058219576E-01 -3.301661487599E-01
C41 -4.899696759811E-01 -4.162569322193E-01  2.425533213340E-01
C42  4.899696759811E-01  4.162569322193E-01 -2.425533213340E-01
C43  4.527510716969E-01 -2.988443157422E-01  1.693960726604E-01
C44 -4.527510716969E-01  2.988443157422E-01 -1.693960726604E-01
C45  4.737989368428E-01 -3.969581479651E-01  8.410686204683E-02
C46 -4.737989368428E-01  3.969581479651E-01 -8.410686204683E-02
C47  4.201506521248E-01 -2.771991003502E-01  1.072708155501E-02
C48 -4.201506521248E-01  2.771991003502E-01 -1.072708155501E-02
C49 -4.438338018526E-01  3.741780298875E-01  7.319163920866E-02
C50  4.438338018526E-01 -3.741780298875E-01 -7.319163920866E-02
C51 -3.881200103473E-01  2.553987757857E-01  1.479874269605E-01
C52  3.881200103473E-01 -2.553987757857E-01 -1.479874269605E-01
C53 -4.087738694812E-01  3.544248374465E-01  2.315279117250E-01
C54  4.087738694812E-01 -3.544248374465E-01 -2.315279117250E-01
C55 -3.458968596113E-01  2.384212053690E-01  3.088547751518E-01
C56  3.458968596113E-01 -2.384212053690E-01 -3.088547751518E-01
C57 -3.606216080411E-01  3.429769252777E-01  3.914008922530E-01
C58  3.606216080411E-01 -3.429769252777E-01 -3.914008922530E-01
H59 -4.488508002007E-01 -3.492608285778E-01  4.691851508187E-01
H60  4.488508002007E-01  3.492608285778E-01 -4.691851508187E-01
H61  4.330718101717E-01 -1.427091583457E-01  3.382997318014E-01
H62 -4.330718101717E-01  1.427091583457E-01 -3.382997318014E-01
H63  3.922885275099E-01 -1.260972068752E-01  1.779404093315E-01
H64 -3.922885275099E-01  1.260972068752E-01 -1.779404093315E-01
H65  3.594303128770E-01 -1.045198926245E-01  1.934238429141E-02
H66 -3.594303128770E-01  1.045198926245E-01 -1.934238429141E-02
H67 -3.265684624962E-01  8.293529606201E-02  1.396407589180E-01
H68  3.265684624962E-01 -8.293529606201E-02 -1.396407589180E-01
H69 -2.844197831496E-01  6.609322715903E-02  3.003357860320E-01
H70  2.844197831496E-01 -6.609322715903E-02 -3.003357860320E-01
H71 -3.067423591037E-01  2.563639874247E-01  4.506693155334E-01
H72  3.067423591037E-01 -2.563639874247E-01 -4.506693155334E-01


#===END

data_OPT_STEP_12

_symmetry_space_group_name_H-M 'P 1'
_cell_length_a      7.26806168
_cell_length_b      5.91838490
_cell_length_c     15.71043085
_cell_angle_alpha  102.011592
_cell_angle_beta  112.198885
_cell_angle_gamma   85.583451

loop_
_atom_site_label
_atom_site_fract_x
_atom_site_fract_y
_atom_site_fract_z
C1  1.264359424421E-01  3.566506348779E-02  4.102606239905E-01
C2 -1.264359424421E-01 -3.566506348779E-02 -4.102606239905E-01
C3 -2.415262109082E-02 -2.793401729060E-01  2.813351515955E-01
C4  2.415262109082E-02  2.793401729060E-01 -2.813351515955E-01
C5  3.560117182239E-02 -1.867940580326E-01  3.742434478469E-01
C6 -3.560117182239E-02  1.867940580326E-01 -3.742434478469E-01
C7  1.534712948315E-01  1.596593044900E-01  3.521574787950E-01
C8 -1.534712948315E-01 -1.596593044900E-01 -3.521574787950E-01
C9  9.335610736580E-02  6.918054735395E-02  2.539033043619E-01
C10 -9.335610736580E-02 -6.918054735395E-02 -2.539033043619E-01
C11  1.210829854295E-01  1.903668923128E-01  1.933825165454E-01
C12 -1.210829854295E-01 -1.903668923128E-01 -1.933825165454E-01
C13  6.139691870359E-02  9.876862637944E-02  9.672337379711E-02
C14 -6.139691870359E-02 -9.876862637944E-02 -9.672337379711E-02
C15  8.867146371326E-02  2.194969188038E-01  3.504966730824E-02
C16 -8.867146371326E-02 -2.194969188038E-01 -3.504966730824E-02
C17 -2.982892828651E-02 -1.271890230296E-01  6.058128149369E-02
C18  2.982892828651E-02  1.271890230296E-01 -6.058128149369E-02
C19 -5.663082875575E-02 -2.485286593129E-01  1.230907225871E-01
C20  5.663082875575E-02  2.485286593129E-01 -1.230907225871E-01
C21  2.387023899994E-03 -1.564707015701E-01  2.177443135378E-01
C22 -2.387023899994E-03  1.564707015701E-01 -2.177443135378E-01
H23  1.740279144372E-01  1.053646849502E-01  4.847982456285E-01
H24 -1.740279144372E-01 -1.053646849502E-01 -4.847982456285E-01
H25 -9.326159911068E-02 -4.483340805854E-01  2.536777857059E-01
H26  9.326159911068E-02  4.483340805854E-01 -2.536777857059E-01
H27  1.481702060471E-02 -2.836233126406E-01  4.214555943179E-01
H28 -1.481702060471E-02  2.836233126406E-01 -4.214555943179E-01
H29  2.211300908982E-01  3.298146723840E-01  3.783698937720E-01
H30 -2.211300908982E-01 -3.298146723840E-01 -3.783698937720E-01
H31  1.908088474849E-01  3.594537061661E-01  2.205698711400E-01
H32 -1.908088474849E-01 -3.594537061661E-01 -2.205698711400E-01
H33  1.579088177366E-01  3.888085787688E-01  6.211926879269E-02
H34 -1.579088177366E-01 -3.888085787688E-01 -6.211926879269E-02
H35 -1.253913124727E-01 -4.179932467555E-01  9.595271988691E-02
H36  1.253913124727E-01  4.179932467555E-01 -9.595271988691E-02
C37 -4.417703601173E-01 -4.304486243348E-01  4.023256222533E-01
C38  4.417703601173E-01  4.304486243348E-01 -4.023256222533E-01
C39  4.948811703391E-01 -3.141467124162E-01  3.304913138300E-01
C40 -4.948811703391E-01  3.141467124162E-01 -3.304913138299E-01
C41 -4.903101094693E-01 -4.158511956075E-01  2.426883154554E-01
C42  4.903101094693E-01  4.158511956075E-01 -2.426883154554E-01
C43  4.527036792822E-01 -2.983006120204E-01  1.695545891143E-01
C44 -4.527036792822E-01  2.983006120204E-01 -1.695545891143E-01
C45  4.740216335021E-01 -3.964408033638E-01  8.424062696439E-02
C46 -4.740216335021E-01  3.964408033638E-01 -8.424062696439E-02
C47  4.207273972297E-01 -2.765727067743E-01  1.087101118299E-02
C48 -4.207273972297E-01  2.765727067743E-01 -1.087101118299E-02
C49 -4.445288937407E-01  3.737918172201E-01  7.309498452511E-02
C50  4.445288937407E-01 -3.737918172201E-01 -7.309498452511E-02
C51 -3.893719823237E-01  2.548428108151E-01  1.478293642526E-01
C52  3.893719823237E-01 -2.548428108151E-01 -1.478293642526E-01
C53 -4.093795872319E-01  3.544586243676E-01  2.315401035655E-01
C54  4.093795872319E-01 -3.544586243676E-01 -2.315401035655E-01
C55 -3.460211609042E-01  2.386645789543E-01  3.089786538244E-01
C56  3.460211609042E-01 -2.386645789543E-01 -3.089786538244E-01
C57 -3.605493226897E-01  3.433832884286E-01  3.916420458435E-01
C58  3.605493226897E-01 -3.433832884286E-01 -3.916420458435E-01
H59 -4.501480599507E-01 -3.492271399000E-01  4.692550649695E-01
H60  4.501480599507E-01  3.492271399000E-01 -4.692550649695E-01
H61  4.339245449720E-01 -1.415700518142E-01  3.388515947606E-01
H62 -4.339245449720E-01  1.415700518142E-01 -3.388515947606E-01
H63  3.919420306826E-01 -1.255708062732E-01  1.781005264509E-01
H64 -3.919420306826E-01  1.255708062732E-01 -1.781005264509E-01
H65  3.599105092120E-01 -1.038207767751E-01  1.947031446754E-02
H66 -3.599105092120E-01  1.038207767751E-01 -1.947031446754E-02
H67 -3.284556369201E-01  8.196050565248E-02  1.393617633355E-01
H68  3.284556369201E-01 -8.196050565248E-02 -1.393617633355E-01
H69 -2.843217049132E-01  6.643386082365E-02  3.004558981917E-01
H70  2.843217049132E-01 -6.643386082365E-02 -3.004558981917E-01
H71 -3.073234674603E-01  2.562466782778E-01  4.507706455010E-01
H72  3.073234674603E-01 -2.562466782778E-01 -4.507706455010E-01


#===END

data_OPT_STEP_13

_symmetry_space_group_name_H-M 'P 1'
_cell_length_a      7.26525891
_cell_length_b      5.91984513
_cell_length_c     15.69831147
_cell_angle_alpha  102.040667
_cell_angle_beta  112.178820
_cell_angle_gamma   85.658090

loop_
_atom_site_label
_atom_site_fract_x
_atom_site_fract_y
_atom_site_fract_z
C1  1.274356707095E-01  3.417301421471E-02  4.104902441964E-01
C2 -1.274356707095E-01 -3.417301421471E-02 -4.104902441964E-01
C3 -2.258453381513E-02 -2.810072876910E-01  2.814639921170E-01
C4  2.258453381513E-02  2.810072876910E-01 -2.814639921170E-01
C5  3.778535298771E-02 -1.889300053715E-01  3.745013398558E-01
C6 -3.778535298771E-02  1.889300053715E-01 -3.745013398558E-01
C7  1.533955189739E-01  1.589278179821E-01  3.523337701107E-01
C8 -1.533955189739E-01 -1.589278179821E-01 -3.523337701107E-01
C9  9.345389867279E-02  6.853935976421E-02  2.540637296295E-01
C10 -9.345389867279E-02 -6.853935976421E-02 -2.540637296295E-01
C11  1.201353365039E-01  1.904346347573E-01  1.934447214877E-01
C12 -1.201353365039E-01 -1.904346347573E-01 -1.934447214877E-01
C13  6.114476807856E-02  9.879699302081E-02  9.683388118138E-02
C14 -6.114476807856E-02 -9.879699302081E-02 -9.683388118138E-02
C15  8.717386516747E-02  2.205028669428E-01  3.506240598356E-02
C16 -8.717386516747E-02 -2.205028669428E-01 -3.506240598356E-02
C17 -2.887639379261E-02 -1.280535098046E-01  6.059685654352E-02
C18  2.887639379261E-02  1.280535098046E-01 -6.059685654352E-02
C19 -5.536423552713E-02 -2.496379173025E-01  1.231228139165E-01
C20  5.536423552713E-02  2.496379173025E-01 -1.231228139165E-01
C21  3.374789215919E-03 -1.577071072006E-01  2.178263167331E-01
C22 -3.374789215919E-03  1.577071072006E-01 -2.178263167331E-01
H23  1.733177896084E-01  1.052496866041E-01  4.850015024180E-01
H24 -1.733177896084E-01 -1.052496866041E-01 -4.850015024180E-01
H25 -9.175648159719E-02 -4.500904994444E-01  2.537028679411E-01
H26  9.175648159719E-02  4.500904994444E-01 -2.537028679411E-01
H27  1.710730388922E-02 -2.859489366557E-01  4.216968984985E-01
H28 -1.710730388922E-02  2.859489366557E-01 -4.216968984985E-01
H29  2.195531214946E-01  3.299583869382E-01  3.784133021367E-01
H30 -2.195531214946E-01 -3.299583869382E-01 -3.784133021367E-01
H31  1.882814483892E-01  3.605284861295E-01  2.206111597093E-01
H32 -1.882814483892E-01 -3.605284861295E-01 -2.206111597093E-01
H33  1.548779809417E-01  3.907441494303E-01  6.209921957128E-02
H34 -1.548779809417E-01 -3.907441494303E-01 -6.209921957128E-02
H35 -1.232105910845E-01 -4.197513747811E-01  9.596730393277E-02
H36  1.232105910845E-01  4.197513747811E-01 -9.596730393277E-02
C37 -4.433860381975E-01 -4.307591939848E-01  4.024507721190E-01
C38  4.433860381975E-01  4.307591939848E-01 -4.024507721190E-01
C39  4.942537787720E-01 -3.139685337982E-01  3.307563126196E-01
C40 -4.942537787720E-01  3.139685337982E-01 -3.307563126196E-01
C41 -4.916876257561E-01 -4.158998706353E-01  2.426910012216E-01
C42  4.916876257561E-01  4.158998706353E-01 -2.426910012216E-01
C43  4.523264155257E-01 -2.980131307034E-01  1.696575329717E-01
C44 -4.523264155257E-01  2.980131307034E-01 -1.696575329717E-01
C45  4.739912957959E-01 -3.960836015468E-01  8.434346436753E-02
C46 -4.739912957959E-01  3.960836015468E-01 -8.434346436753E-02
C47  4.209532592163E-01 -2.764744570991E-01  1.089855920411E-02
C48 -4.209532592163E-01  2.764744570991E-01 -1.089855920411E-02
C49 -4.454866753976E-01  3.734520915724E-01  7.300158500679E-02
C50  4.454866753976E-01 -3.734520915724E-01 -7.300158500679E-02
C51 -3.912661428677E-01  2.543484098828E-01  1.476107277449E-01
C52  3.912661428677E-01 -2.543484098828E-01 -1.476107277449E-01
C53 -4.120247452099E-01  3.536664773098E-01  2.312673015221E-01
C54  4.120247452099E-01 -3.536664773098E-01 -2.312673015221E-01
C55 -3.493545573500E-01  2.377463347805E-01  3.086302180866E-01
C56  3.493545573500E-01 -2.377463347805E-01 -3.086302180866E-01
C57 -3.633445243259E-01  3.425718970743E-01  3.914810059804E-01
C58  3.633445243259E-01 -3.425718970743E-01 -3.914810059804E-01
H59 -4.523741325890E-01 -3.496712927175E-01  4.693633453701E-01
H60  4.523741325890E-01  3.496712927175E-01 -4.693633453701E-01
H61  4.353437824023E-01 -1.404335526478E-01  3.395928149204E-01
H62 -4.353437824023E-01  1.404335526478E-01 -3.395928149204E-01
H63  3.932823671484E-01 -1.244315946989E-01  1.785591743425E-01
H64 -3.932823671484E-01  1.244315946989E-01 -1.785591743425E-01
H65  3.597522717408E-01 -1.040092355104E-01  1.938305842872E-02
H66 -3.597522717408E-01  1.040092355104E-01 -1.938305842872E-02
H67 -3.288799597399E-01  8.257698881977E-02  1.394601958556E-01
H68  3.288799597399E-01 -8.257698881977E-02 -1.394601958556E-01
H69 -2.876408498386E-01  6.581034329457E-02  3.000990316404E-01
H70  2.876408498386E-01 -6.581034329457E-02 -3.000990316404E-01
H71 -3.110212562541E-01  2.550735961418E-01  4.504846083953E-01
H72  3.110212562541E-01 -2.550735961418E-01 -4.504846083953E-01


#===END

data_OPT_STEP_14

_symmetry_space_group_name_H-M 'P 1'
_cell_length_a      7.25201158
_cell_length_b      5.92472054
_cell_length_c     15.68955494
_cell_angle_alpha  101.960631
_cell_angle_beta  112.169128
_cell_angle_gamma   85.716940

loop_
_atom_site_label
_atom_site_fract_x
_atom_site_fract_y
_atom_site_fract_z
C1  1.273992183869E-01  3.410955501367E-02  4.106470419562E-01
C2 -1.273992183869E-01 -3.410955501367E-02 -4.106470419562E-01
C3 -2.486427740333E-02 -2.791373483328E-01  2.816411859723E-01
C4  2.486427740333E-02  2.791373483328E-01 -2.816411859723E-01
C5  3.770321595351E-02 -1.887112635379E-01  3.747864727472E-01
C6 -3.770321595351E-02  1.887112635379E-01 -3.747864727472E-01
C7  1.526224902754E-01  1.593295390339E-01  3.523765534829E-01
C8 -1.526224902754E-01 -1.593295390339E-01 -3.523765534829E-01
C9  9.242427984043E-02  6.929801397729E-02  2.541094265433E-01
C10 -9.242427984043E-02 -6.929801397729E-02 -2.541094265433E-01
C11  1.201049635725E-01  1.903348064350E-01  1.934400941615E-01
C12 -1.201049635725E-01 -1.903348064350E-01 -1.934400941615E-01
C13  6.161987534514E-02  9.866356082181E-02  9.686485864090E-02
C14 -6.161987534514E-02 -9.866356082181E-02 -9.686485864090E-02
C15  8.922019727725E-02  2.190040494871E-01  3.507204446751E-02
C16 -8.922019727725E-02 -2.190040494871E-01 -3.507204446751E-02
C17 -3.025243567663E-02 -1.271574160224E-01  6.059977716618E-02
C18  3.025243567663E-02  1.271574160224E-01 -6.059977716618E-02
C19 -5.780033773435E-02 -2.477054123078E-01  1.231830444642E-01
C20  5.780033773435E-02  2.477054123078E-01 -1.231830444642E-01
C21  1.402194132437E-03 -1.562412165624E-01  2.179028596441E-01
C22 -1.402194132437E-03  1.562412165624E-01 -2.179028596441E-01
H23  1.729450146883E-01  1.055066026666E-01  4.851393870436E-01
H24 -1.729450146883E-01 -1.055066026666E-01 -4.851393870436E-01
H25 -9.583181585947E-02 -4.470022813766E-01  2.538246590284E-01
H26  9.583181585947E-02  4.470022813766E-01 -2.538246590284E-01
H27  1.712878371647E-02 -2.857456350790E-01  4.220612229141E-01
H28 -1.712878371647E-02  2.857456350790E-01 -4.220612229141E-01
H29  2.179057739616E-01  3.308948369271E-01  3.783716508775E-01
H30 -2.179057739616E-01 -3.308948369271E-01 -3.783716508775E-01
H31  1.899281852333E-01  3.590638948875E-01  2.206232077182E-01
H32 -1.899281852333E-01 -3.590638948875E-01 -2.206232077182E-01
H33  1.583624820499E-01  3.881133929107E-01  6.210370244185E-02
H34 -1.583624820499E-01 -3.881133929107E-01 -6.210370244185E-02
H35 -1.269965914427E-01 -4.168767113623E-01  9.604150444211E-02
H36  1.269965914427E-01  4.168767113623E-01 -9.604150444211E-02
C37 -4.438171949528E-01 -4.311245082392E-01  4.025889893134E-01
C38  4.438171949528E-01  4.311245082392E-01 -4.025889893134E-01
C39  4.942352869206E-01 -3.141847312661E-01  3.308881731075E-01
C40 -4.942352869206E-01  3.141847312661E-01 -3.308881731075E-01
C41 -4.916468437792E-01 -4.158692253612E-01  2.428095748593E-01
C42  4.916468437792E-01  4.158692253612E-01 -2.428095748593E-01
C43  4.530856623279E-01 -2.976615068690E-01  1.698159367413E-01
C44 -4.530856623279E-01  2.976615068690E-01 -1.698159367413E-01
C45  4.743966476161E-01 -3.958949154095E-01  8.443265208725E-02
C46 -4.743966476161E-01  3.958949154095E-01 -8.443265208725E-02
C47  4.217366730651E-01 -2.762466575105E-01  1.095404983572E-02
C48 -4.217366730651E-01  2.762466575105E-01 -1.095404983572E-02
C49 -4.460144961165E-01  3.732483769328E-01  7.299847702737E-02
C50  4.460144961165E-01 -3.732483769328E-01 -7.299847702737E-02
C51 -3.919583308990E-01  2.542293482374E-01  1.476528516169E-01
C52  3.919583308990E-01 -2.542293482374E-01 -1.476528516169E-01
C53 -4.130442878551E-01  3.532170347085E-01  2.312609857962E-01
C54  4.130442878551E-01 -3.532170347085E-01 -2.312609857962E-01
C55 -3.511585270836E-01  2.370400118154E-01  3.085575181053E-01
C56  3.511585270836E-01 -2.370400118154E-01 -3.085575181053E-01
C57 -3.648462018914E-01  3.417572762486E-01  3.914765219160E-01
C58  3.648462018914E-01 -3.417572762486E-01 -3.914765219160E-01
H59 -4.532475234912E-01 -3.502268823338E-01  4.694638273634E-01
H60  4.532475234912E-01  3.502268823338E-01 -4.694638273634E-01
H61  4.354039685812E-01 -1.407701629848E-01  3.397151500462E-01
H62 -4.354039685812E-01  1.407701629848E-01 -3.397151500462E-01
H63  3.949856705923E-01 -1.237246809334E-01  1.788324535149E-01
H64 -3.949856705923E-01  1.237246809334E-01 -1.788324535149E-01
H65  3.607373817609E-01 -1.038128263837E-01  1.939685439070E-02
H66 -3.607373817609E-01  1.038128263837E-01 -1.939685439070E-02
H67 -3.285962978178E-01  8.323404383251E-02  1.397603033044E-01
H68  3.285962978178E-01 -8.323404383251E-02 -1.397603033044E-01
H69 -2.895470586146E-01  6.525783518417E-02  3.000632786565E-01
H70  2.895470586146E-01 -6.525783518417E-02 -3.000632786565E-01
H71 -3.129259560839E-01  2.540817675805E-01  4.504668300667E-01
H72  3.129259560839E-01 -2.540817675805E-01 -4.504668300667E-01


#===END

data_OPT_STEP_15

_symmetry_space_group_name_H-M 'P 1'
_cell_length_a      7.26236597
_cell_length_b      5.91985335
_cell_length_c     15.69527401
_cell_angle_alpha  102.027297
_cell_angle_beta  112.170704
_cell_angle_gamma   85.670055

loop_
_atom_site_label
_atom_site_fract_x
_atom_site_fract_y
_atom_site_fract_z
C1  1.274487577762E-01  3.400823343308E-02  4.105360663356E-01
C2 -1.274487577762E-01 -3.400823343308E-02 -4.105360663356E-01
C3 -2.306919097486E-02 -2.807229854027E-01  2.815042949723E-01
C4  2.306919097486E-02  2.807229854026E-01 -2.815042949723E-01
C5  3.789429506538E-02 -1.891085801873E-01  3.745766169351E-01
C6 -3.789429506538E-02  1.891085801873E-01 -3.745766169351E-01
C7  1.531267609215E-01  1.589906299865E-01  3.523533916692E-01
C8 -1.531267609215E-01 -1.589906299865E-01 -3.523533916692E-01
C9  9.317496024069E-02  6.868238163325E-02  2.540845262559E-01
C10 -9.317496024069E-02 -6.868238163325E-02 -2.540845262559E-01
C11  1.202001763803E-01  1.903186572793E-01  1.934608159027E-01
C12 -1.202001763803E-01 -1.903186572793E-01 -1.934608159027E-01
C13  6.135700707750E-02  9.871310500225E-02  9.685875720398E-02
C14 -6.135700707750E-02 -9.871310500225E-02 -9.685875720398E-02
C15  8.781848698839E-02  2.200597683600E-01  3.508639015165E-02
C16 -8.781848698839E-02 -2.200597683600E-01 -3.508639015165E-02
C17 -2.920980155540E-02 -1.278887359412E-01  6.058707111631E-02
C18  2.920980155540E-02  1.278887359412E-01 -6.058707111631E-02
C19 -5.589028132171E-02 -2.492798903408E-01  1.231314483417E-01
C20  5.589028132171E-02  2.492798903408E-01 -1.231314483417E-01
C21  2.941101404785E-03 -1.574738763022E-01  2.178443540193E-01
C22 -2.941101404785E-03  1.574738763022E-01 -2.178443540193E-01
H23  1.732725417634E-01  1.051504022910E-01  4.850478445733E-01
H24 -1.732725417634E-01 -1.051504022910E-01 -4.850478445733E-01
H25 -9.265313364192E-02 -4.495504156615E-01  2.537212636681E-01
H26  9.265313364192E-02  4.495504156615E-01 -2.537212636681E-01
H27  1.722372817539E-02 -2.861556441335E-01  4.217842127024E-01
H28 -1.722372817539E-02  2.861556441335E-01 -4.217842127024E-01
H29  2.188956933104E-01  3.302922382272E-01  3.784140737799E-01
H30 -2.188956933104E-01 -3.302922382272E-01 -3.784140737799E-01
H31  1.889237361704E-01  3.599624840827E-01  2.206490962352E-01
H32 -1.889237361704E-01 -3.599624840827E-01 -2.206490962352E-01
H33  1.559184154865E-01  3.900038232267E-01  6.213238434314E-02
H34 -1.559184154865E-01 -3.900038232267E-01 -6.213238434314E-02
H35 -1.240512906214E-01 -4.191975959899E-01  9.597128037084E-02
H36  1.240512906214E-01  4.191975959899E-01 -9.597128037084E-02
C37 -4.435671968056E-01 -4.309044774458E-01  4.025027274308E-01
C38  4.435671968056E-01  4.309044774458E-01 -4.025027274308E-01
C39  4.941924420010E-01 -3.140487559854E-01  3.308109506885E-01
C40 -4.941924420010E-01  3.140487559854E-01 -3.308109506885E-01
C41 -4.916552172218E-01 -4.158684735156E-01  2.427446053832E-01
C42  4.916552172218E-01  4.158684735156E-01 -2.427446053832E-01
C43  4.525022836398E-01 -2.979033126845E-01  1.697166992354E-01
C44 -4.525022836398E-01  2.979033126845E-01 -1.697166992354E-01
C45  4.740827007511E-01 -3.960197801436E-01  8.437634250317E-02
C46 -4.740827007511E-01  3.960197801436E-01 -8.437634250317E-02
C47  4.212095837447E-01 -2.763428537719E-01  1.093734977423E-02
C48 -4.212095837447E-01  2.763428537719E-01 -1.093734977423E-02
C49 -4.456369639713E-01  3.733623586465E-01  7.299383511521E-02
C50  4.456369639713E-01 -3.733623586465E-01 -7.299383511521E-02
C51 -3.914696259324E-01  2.542588041093E-01  1.476101199977E-01
C52  3.914696259324E-01 -2.542588041093E-01 -1.476101199977E-01
C53 -4.122358859167E-01  3.535465057603E-01  2.312766638426E-01
C54  4.122358859167E-01 -3.535465057603E-01 -2.312766638426E-01
C55 -3.497956044728E-01  2.375153923931E-01  3.086125199458E-01
C56  3.497956044728E-01 -2.375153923931E-01 -3.086125199458E-01
C57 -3.638011285527E-01  3.422705428528E-01  3.914783386087E-01
C58  3.638011285527E-01 -3.422705428528E-01 -3.914783386087E-01
H59 -4.527219015453E-01 -3.498461014407E-01  4.694052023577E-01
H60  4.527219015453E-01  3.498461014407E-01 -4.694052023577E-01
H61  4.351235370577E-01 -1.405971718675E-01  3.396297153734E-01
H62 -4.351235370577E-01  1.405971718675E-01 -3.396297153734E-01
H63  3.935141723849E-01 -1.242894857959E-01  1.786259949954E-01
H64 -3.935141723849E-01  1.242894857959E-01 -1.786259949954E-01
H65  3.600636660643E-01 -1.038454130445E-01  1.942301146139E-02
H66 -3.600636660643E-01  1.038454130445E-01 -1.942301146139E-02
H67 -3.289075313977E-01  8.260649757923E-02  1.395008527151E-01
H68  3.289075313977E-01 -8.260649757923E-02 -1.395008527151E-01
H69 -2.880088960363E-01  6.564198686147E-02  3.000957740478E-01
H70  2.880088960363E-01 -6.564198686147E-02 -3.000957740478E-01
H71 -3.116757268356E-01  2.546560414849E-01  4.504595781664E-01
H72  3.116757268356E-01 -2.546560414849E-01 -4.504595781664E-01


#===END

data_OPT_STEP_16

_symmetry_space_group_name_H-M 'P 1'
_cell_length_a      7.25777727
_cell_length_b      5.91758118
_cell_length_c     15.69023481
_cell_angle_alpha  102.043743
_cell_angle_beta  112.177090
_cell_angle_gamma   85.650075

loop_
_atom_site_label
_atom_site_fract_x
_atom_site_fract_y
_atom_site_fract_z
C1  1.269135075235E-01  3.359346526309E-02  4.105691410787E-01
C2 -1.269135075235E-01 -3.359346526309E-02 -4.105691410787E-01
C3 -2.250129138398E-02 -2.817817483141E-01  2.814907224839E-01
C4  2.250129138398E-02  2.817817483141E-01 -2.814907224839E-01
C5  3.811359173508E-02 -1.900351310612E-01  3.745896541970E-01
C6 -3.811359173508E-02  1.900351310612E-01 -3.745896541970E-01
C7  1.520003740969E-01  1.591565663570E-01  3.523883736004E-01
C8 -1.520003740969E-01 -1.591565663570E-01 -3.523883736004E-01
C9  9.250478868239E-02  6.869649897956E-02  2.541160305216E-01
C10 -9.250478868239E-02 -6.869649897956E-02 -2.541160305216E-01
C11  1.200112933073E-01  1.900938484356E-01  1.935360816281E-01
C12 -1.200112933073E-01 -1.900938484356E-01 -1.935360816281E-01
C13  6.142608241930E-02  9.858865726951E-02  9.692214883011E-02
C14 -6.142608241930E-02 -9.858865726951E-02 -9.692214883011E-02
C15  8.791650276269E-02  2.200117835891E-01  3.517750913225E-02
C16 -8.791650276269E-02 -2.200117835891E-01 -3.517750913225E-02
C17 -2.896714267341E-02 -1.282559706856E-01  6.054813244148E-02
C18  2.896714267341E-02  1.282559706856E-01 -6.054813244148E-02
C19 -5.520053094410E-02 -2.500868511342E-01  1.231009979772E-01
C20  5.520053094410E-02  2.500868511342E-01 -1.231009979772E-01
C21  3.181899139258E-03 -1.581176552978E-01  2.178436981450E-01
C22 -3.181899139258E-03  1.581176552978E-01 -2.178436981450E-01
H23  1.732550667611E-01  1.043444638576E-01  4.851349882451E-01
H24 -1.732550667611E-01 -1.043444638576E-01 -4.851349882451E-01
H25 -9.119469322511E-02 -4.512263363895E-01  2.537105272829E-01
H26  9.119469322511E-02  4.512263363895E-01 -2.537105272829E-01
H27  1.743872272879E-02 -2.872463286577E-01  4.217601470690E-01
H28 -1.743872272879E-02  2.872463286577E-01 -4.217601470690E-01
H29  2.168908321596E-01  3.310932538181E-01  3.784586630171E-01
H30 -2.168908321596E-01 -3.310932538181E-01 -3.784586630171E-01
H31  1.889908440619E-01  3.595247352173E-01  2.207990111598E-01
H32 -1.889908440619E-01 -3.595247352173E-01 -2.207990111598E-01
H33  1.555906946102E-01  3.902404038514E-01  6.225252900269E-02
H34 -1.555906946102E-01 -3.902404038514E-01 -6.225252900269E-02
H35 -1.227525961347E-01 -4.204445581064E-01  9.592056519802E-02
H36  1.227525961347E-01  4.204445581064E-01 -9.592056519802E-02
C37 -4.441295195686E-01 -4.313723426445E-01  4.025681989587E-01
C38  4.441295195686E-01  4.313723426445E-01 -4.025681989587E-01
C39  4.938224503043E-01 -3.143525073852E-01  3.308956738280E-01
C40 -4.938224503043E-01  3.143525073852E-01 -3.308956738280E-01
C41 -4.917708419051E-01 -4.159573135332E-01  2.428226207679E-01
C42  4.917708419051E-01  4.159573135332E-01 -2.428226207679E-01
C43  4.522572521274E-01 -2.980212570585E-01  1.697585378060E-01
C44 -4.522572521274E-01  2.980212570585E-01 -1.697585378060E-01
C45  4.739893297459E-01 -3.960353036942E-01  8.441020551851E-02
C46 -4.739893297459E-01  3.960353036942E-01 -8.441020551851E-02
C47  4.217489532297E-01 -2.759487312337E-01  1.107310514713E-02
C48 -4.217489532297E-01  2.759487312337E-01 -1.107310514713E-02
C49 -4.459931814053E-01  3.730751445820E-01  7.293434714944E-02
C50  4.459931814053E-01 -3.730751445820E-01 -7.293434714944E-02
C51 -3.922674804388E-01  2.537350450040E-01  1.474832437944E-01
C52  3.922674804388E-01 -2.537350450040E-01 -1.474832437944E-01
C53 -4.123111660268E-01  3.533789831360E-01  2.313116366558E-01
C54  4.123111660268E-01 -3.533789831360E-01 -2.313116366558E-01
C55 -3.501686571000E-01  2.371105851689E-01  3.085968103565E-01
C56  3.501686571000E-01 -2.371105851689E-01 -3.085968103565E-01
C57 -3.644617217351E-01  3.416675050109E-01  3.914731018737E-01
C58  3.644617217351E-01 -3.416675050109E-01 -3.914731018737E-01
H59 -4.534293392906E-01 -3.502283675471E-01  4.694657383341E-01
H60  4.534293392906E-01  3.502283675471E-01 -4.694657383341E-01
H61  4.339497421172E-01 -1.412073806781E-01  3.396277145748E-01
H62 -4.339497421172E-01  1.412073806781E-01 -3.396277145748E-01
H63  3.919561602351E-01 -1.249989131804E-01  1.784605069706E-01
H64 -3.919561602351E-01  1.249989131804E-01 -1.784605069706E-01
H65  3.606452500933E-01 -1.033281970987E-01  1.959592233654E-02
H66 -3.606452500933E-01  1.033281970987E-01 -1.959592233654E-02
H67 -3.307419128293E-01  8.136072447729E-02  1.391542185982E-01
H68  3.307419128293E-01 -8.136072447729E-02 -1.391542185982E-01
H69 -2.881800488420E-01  6.524488381149E-02  3.000780741527E-01
H70  2.881800488420E-01 -6.524488381149E-02 -3.000780741527E-01
H71 -3.128287637972E-01  2.536947568551E-01  4.503707384878E-01
H72  3.128287637972E-01 -2.536947568551E-01 -4.503707384878E-01


#===END

data_OPT_STEP_17

_symmetry_space_group_name_H-M 'P 1'
_cell_length_a      7.25253214
_cell_length_b      5.92028670
_cell_length_c     15.68465438
_cell_angle_alpha  101.976644
_cell_angle_beta  112.201485
_cell_angle_gamma   85.675338

loop_
_atom_site_label
_atom_site_fract_x
_atom_site_fract_y
_atom_site_fract_z
C1  1.259428363440E-01  3.437147254279E-02  4.106791715533E-01
C2 -1.259428363440E-01 -3.437147254279E-02 -4.106791715533E-01
C3 -2.325994623451E-02 -2.810101432714E-01  2.816812220571E-01
C4  2.325994623451E-02  2.810101432714E-01 -2.816812220571E-01
C5  3.730214154437E-02 -1.892207243028E-01  3.747824679956E-01
C6 -3.730214154437E-02  1.892207243028E-01 -3.747824679956E-01
C7  1.509239908450E-01  1.599114068659E-01  3.524164697850E-01
C8 -1.509239908450E-01 -1.599114068659E-01 -3.524164697850E-01
C9  9.170093190191E-02  6.929764363768E-02  2.541508614268E-01
C10 -9.170093190191E-02 -6.929764363768E-02 -2.541508614268E-01
C11  1.193593217088E-01  1.904903195063E-01  1.935036695777E-01
C12 -1.193593217088E-01 -1.904903195063E-01 -1.935036695777E-01
C13  6.102971315594E-02  9.884447646124E-02  9.688993596109E-02
C14 -6.102971315594E-02 -9.884447646124E-02 -9.688993596109E-02
C15  8.774100238049E-02  2.200259476180E-01  3.508880254024E-02
C16 -8.774100238049E-02 -2.200259476180E-01 -3.508880254024E-02
C17 -2.922264159240E-02 -1.279968469319E-01  6.061682496650E-02
C18  2.922264159240E-02  1.279968469319E-01 -6.061682496650E-02
C19 -5.584412657784E-02 -2.494633197353E-01  1.232076496452E-01
C20  5.584412657784E-02  2.494633197353E-01 -1.232076496452E-01
C21  2.402812577917E-03 -1.574345929102E-01  2.179548347258E-01
C22 -2.402812577917E-03  1.574345929102E-01 -2.179548347258E-01
H23  1.725861535981E-01  1.049452574616E-01  4.852606549325E-01
H24 -1.725861535981E-01 -1.049452574616E-01 -4.852606549325E-01
H25 -9.165762822569E-02 -4.505576845448E-01  2.539915080645E-01
H26  9.165762822569E-02  4.505576845448E-01 -2.539915080645E-01
H27  1.682107950606E-02 -2.864959449630E-01  4.220235918937E-01
H28 -1.682107950606E-02  2.864959449630E-01 -4.220235918937E-01
H29  2.155277931449E-01  3.319503465571E-01  3.784386652807E-01
H30 -2.155277931449E-01 -3.319503465571E-01 -3.784386652807E-01
H31  1.880709456250E-01  3.600273250782E-01  2.207016528513E-01
H32 -1.880709456250E-01 -3.600273250782E-01 -2.207016528513E-01
H33  1.550570277274E-01  3.904054613985E-01  6.208215649745E-02
H34 -1.550570277274E-01 -3.904054613985E-01 -6.208215649745E-02
H35 -1.234606995279E-01 -4.196945346859E-01  9.608568935180E-02
H36  1.234606995279E-01  4.196945346859E-01 -9.608568935180E-02
C37 -4.443411723694E-01 -4.316482901833E-01  4.026603860885E-01
C38  4.443411723694E-01  4.316482901833E-01 -4.026603860885E-01
C39  4.942189162948E-01 -3.143426508854E-01  3.310167954006E-01
C40 -4.942189162948E-01  3.143426508854E-01 -3.310167954006E-01
C41 -4.916297235006E-01 -4.160051028747E-01  2.429007212467E-01
C42  4.916297235006E-01  4.160051028747E-01 -2.429007212467E-01
C43  4.525762266800E-01 -2.980252237537E-01  1.697876770557E-01
C44 -4.525762266800E-01  2.980252237537E-01 -1.697876770557E-01
C45  4.741576354050E-01 -3.960495738377E-01  8.442673191809E-02
C46 -4.741576354050E-01  3.960495738377E-01 -8.442673191809E-02
C47  4.220272932887E-01 -2.759776364653E-01  1.102911641661E-02
C48 -4.220272932887E-01  2.759776364653E-01 -1.102911641661E-02
C49 -4.462380975712E-01  3.730111778086E-01  7.297356302583E-02
C50  4.462380975712E-01 -3.730111778086E-01 -7.297356302583E-02
C51 -3.928799683790E-01  2.535601493612E-01  1.475292093580E-01
C52  3.928799683790E-01 -2.535601493612E-01 -1.475292093580E-01
C53 -4.126902805847E-01  3.531799566697E-01  2.313887559002E-01
C54  4.126902805847E-01 -3.531799566697E-01 -2.313887559002E-01
C55 -3.510483643421E-01  2.367442586655E-01  3.086654264893E-01
C56  3.510483643421E-01 -2.367442586655E-01 -3.086654264893E-01
C57 -3.651092647095E-01  3.412867987575E-01  3.915756942156E-01
C58  3.651092647095E-01 -3.412867987575E-01 -3.915756942156E-01
H59 -4.538355042019E-01 -3.506166127434E-01  4.695120702328E-01
H60  4.538355042019E-01  3.506166127435E-01 -4.695120702328E-01
H61  4.349381886632E-01 -1.409986323969E-01  3.397927670157E-01
H62 -4.349381886632E-01  1.409986323969E-01 -3.397927670157E-01
H63  3.922197408762E-01 -1.251373417757E-01  1.784040882025E-01
H64 -3.922197408762E-01  1.251373417757E-01 -1.784040882025E-01
H65  3.607562061488E-01 -1.035542192187E-01  1.944697421849E-02
H66 -3.607562061488E-01  1.035542192187E-01 -1.944697421849E-02
H67 -3.318052821505E-01  8.100356791631E-02  1.391864522847E-01
H68  3.318052821505E-01 -8.100356791631E-02 -1.391864522847E-01
H69 -2.896673095635E-01  6.460359035368E-02  3.001024036092E-01
H70  2.896673095635E-01 -6.460359035368E-02 -3.001024036092E-01
H71 -3.137496898287E-01  2.531569019932E-01  4.504792145394E-01
H72  3.137496898287E-01 -2.531569019932E-01 -4.504792145394E-01


#===END

data_OPT_STEP_18

_symmetry_space_group_name_H-M 'P 1'
_cell_length_a      7.25562255
_cell_length_b      5.91886741
_cell_length_c     15.67285803
_cell_angle_alpha  101.964974
_cell_angle_beta  112.178773
_cell_angle_gamma   85.658870

loop_
_atom_site_label
_atom_site_fract_x
_atom_site_fract_y
_atom_site_fract_z
C1  1.258169783805E-01  3.431236008606E-02  4.109825908186E-01
C2 -1.258169783805E-01 -3.431236008606E-02 -4.109825908186E-01
C3 -2.308948035962E-02 -2.810217830248E-01  2.819918031672E-01
C4  2.308948035962E-02  2.810217830248E-01 -2.819918031672E-01
C5  3.727197273099E-02 -1.891072156735E-01  3.751308776367E-01
C6 -3.727197273099E-02  1.891072156735E-01 -3.751308776367E-01
C7  1.509075706365E-01  1.596706372830E-01  3.526379013040E-01
C8 -1.509075706365E-01 -1.596706372830E-01 -3.526379013040E-01
C9  9.233577004337E-02  6.872556394332E-02  2.543630403152E-01
C10 -9.233577004337E-02 -6.872556394332E-02 -2.543630403152E-01
C11  1.198829752588E-01  1.899373515509E-01  1.936300838046E-01
C12 -1.198829752588E-01 -1.899373515509E-01 -1.936300838046E-01
C13  6.116938374307E-02  9.876382488831E-02  9.696635857953E-02
C14 -6.116938374307E-02 -9.876382488831E-02 -9.696635857953E-02
C15  8.805940345262E-02  2.196994889461E-01  3.508632972765E-02
C16 -8.805940345262E-02 -2.196994889461E-01 -3.508632972765E-02
C17 -2.946676439852E-02 -1.278755624307E-01  6.066602440886E-02
C18  2.946676439852E-02  1.278755624307E-01 -6.066602440886E-02
C19 -5.612708439365E-02 -2.492088542299E-01  1.233426116997E-01
C20  5.612708439365E-02  2.492088542299E-01 -1.233426116997E-01
C21  2.597664966063E-03 -1.576500758128E-01  2.181619257506E-01
C22 -2.597664966063E-03  1.576500758128E-01 -2.181619257506E-01
H23  1.726556869793E-01  1.047988281835E-01  4.856059477289E-01
H24 -1.726556869793E-01 -1.047988281835E-01 -4.856059477289E-01
H25 -9.145801674112E-02 -4.505124735938E-01  2.543567222754E-01
H26  9.145801674112E-02  4.505124735938E-01 -2.543567222754E-01
H27  1.689123975609E-02 -2.864367838511E-01  4.224369045141E-01
H28 -1.689123975609E-02  2.864367838511E-01 -4.224369045141E-01
H29  2.145660460713E-01  3.322018920151E-01  3.785972683401E-01
H30 -2.145660460713E-01 -3.322018920151E-01 -3.785972683401E-01
H31  1.887128387716E-01  3.592916936141E-01  2.208237075244E-01
H32 -1.887128387716E-01 -3.592916936141E-01 -2.208237075244E-01
H33  1.559502208789E-01  3.895731379159E-01  6.209324529020E-02
H34 -1.559502208789E-01 -3.895731379159E-01 -6.209324529020E-02
H35 -1.243437319265E-01 -4.189886570654E-01  9.619543448520E-02
H36  1.243437319265E-01  4.189886570654E-01 -9.619543448520E-02
C37 -4.455815395414E-01 -4.317700394146E-01  4.027810960451E-01
C38  4.455815395414E-01  4.317700394146E-01 -4.027810960451E-01
C39  4.933723814441E-01 -3.143960112288E-01  3.311039582585E-01
C40 -4.933723814441E-01  3.143960112288E-01 -3.311039582585E-01
C41 -4.921610940276E-01 -4.159910537083E-01  2.429941390601E-01
C42  4.921610940276E-01  4.159910537083E-01 -2.429941390601E-01
C43  4.518402910750E-01 -2.982614109508E-01  1.697437134771E-01
C44 -4.518402910750E-01  2.982614109508E-01 -1.697437134771E-01
C45  4.737487487889E-01 -3.961938558337E-01  8.440269331713E-02
C46 -4.737487487889E-01  3.961938558337E-01 -8.440269331713E-02
C47  4.214449788825E-01 -2.763795399881E-01  1.087600942074E-02
C48 -4.214449788825E-01  2.763795399881E-01 -1.087600942074E-02
C49 -4.460687589124E-01  3.732716686514E-01  7.310232919398E-02
C50  4.460687589124E-01 -3.732716686514E-01 -7.310232919398E-02
C51 -3.924666880376E-01  2.540270380351E-01  1.477894661262E-01
C52  3.924666880376E-01 -2.540270380351E-01 -1.477894661262E-01
C53 -4.127379485552E-01  3.535186032335E-01  2.316229136108E-01
C54  4.127379485552E-01 -3.535186032335E-01 -2.316229136108E-01
C55 -3.513564466879E-01  2.370096317109E-01  3.089469293152E-01
C56  3.513564466879E-01 -2.370096317109E-01 -3.089469293152E-01
C57 -3.661878207781E-01  3.412578115857E-01  3.917848560656E-01
C58  3.661878207781E-01 -3.412578115857E-01 -3.917848560656E-01
H59 -4.558127803226E-01 -3.508382554575E-01  4.695668648458E-01
H60  4.558127803226E-01  3.508382554575E-01 -4.695668648458E-01
H61  4.340841435150E-01 -1.410009925106E-01  3.398619284915E-01
H62 -4.340841435150E-01  1.410009925106E-01 -3.398619284915E-01
H63  3.910920912095E-01 -1.255174747580E-01  1.782534151569E-01
H64 -3.910920912095E-01  1.255174747580E-01 -1.782534151569E-01
H65  3.596476966826E-01 -1.041771246156E-01  1.916696821251E-02
H66 -3.596476966826E-01  1.041771246156E-01 -1.916696821251E-02
H67 -3.310806989243E-01  8.155150547154E-02  1.395213213478E-01
H68  3.310806989243E-01 -8.155150547154E-02 -1.395213213478E-01
H69 -2.900675737284E-01  6.472336882742E-02  3.003832459208E-01
H70  2.900675737284E-01 -6.472336882742E-02 -3.003832459208E-01
H71 -3.157404311412E-01  2.526707948414E-01  4.506143589175E-01
H72  3.157404311412E-01 -2.526707948414E-01 -4.506143589175E-01


#===END

data_OPT_STEP_19

_symmetry_space_group_name_H-M 'P 1'
_cell_length_a      7.25249118
_cell_length_b      5.91966389
_cell_length_c     15.66321597
_cell_angle_alpha  101.945405
_cell_angle_beta  112.186738
_cell_angle_gamma   85.639958

loop_
_atom_site_label
_atom_site_fract_x
_atom_site_fract_y
_atom_site_fract_z
C1  1.245052781344E-01  3.493411164030E-02  4.111535153801E-01
C2 -1.245052781344E-01 -3.493411164030E-02 -4.111535153801E-01
C3 -2.369165356251E-02 -2.806716251925E-01  2.821565762780E-01
C4  2.369165356251E-02  2.806716251925E-01 -2.821565762780E-01
C5  3.636506713055E-02 -1.885972563495E-01  3.753298637013E-01
C6 -3.636506713055E-02  1.885972563495E-01 -3.753298637013E-01
C7  1.499954161534E-01  1.599130834858E-01  3.527516912604E-01
C8 -1.499954161534E-01 -1.599130834858E-01 -3.527516912604E-01
C9  9.172332826279E-02  6.887284000382E-02  2.544573470965E-01
C10 -9.172332826279E-02 -6.887284000382E-02 -2.544573470965E-01
C11  1.195259890724E-01  1.899190506708E-01  1.936985474780E-01
C12 -1.195259890724E-01 -1.899190506708E-01 -1.936985474780E-01
C13  6.098577674186E-02  9.877372849188E-02  9.699756079364E-02
C14 -6.098577674186E-02 -9.877372849188E-02 -9.699756079364E-02
C15  8.811325278479E-02  2.195551991570E-01  3.509369370325E-02
C16 -8.811325278479E-02 -2.195551991570E-01 -3.509369370325E-02
C17 -2.962582911008E-02 -1.278163441929E-01  6.069749480197E-02
C18  2.962582911008E-02  1.278163441929E-01 -6.069749480197E-02
C19 -5.628321986603E-02 -2.491700196805E-01  1.234176555808E-01
C20  5.628321986603E-02  2.491700196805E-01 -1.234176555808E-01
C21  2.165366517172E-03 -1.575137115620E-01  2.182761567033E-01
C22 -2.165366517172E-03  1.575137115620E-01 -2.182761567033E-01
H23  1.707558155227E-01  1.058497915450E-01  4.857708415742E-01
H24 -1.707558155227E-01 -1.058497915450E-01 -4.857708415742E-01
H25 -9.224946339789E-02 -4.499333024847E-01  2.545334658567E-01
H26  9.224946339789E-02  4.499333024847E-01 -2.545334658567E-01
H27  1.595912468485E-02 -2.859467229988E-01  4.226646757085E-01
H28 -1.595912468485E-02  2.859467229988E-01 -4.226646757085E-01
H29  2.134189527366E-01  3.323724552188E-01  3.786510775614E-01
H30 -2.134189527366E-01 -3.323724552188E-01 -3.786510775614E-01
H31  1.880329305243E-01  3.594320025929E-01  2.208863979548E-01
H32 -1.880329305243E-01 -3.594320025929E-01 -2.208863979548E-01
H33  1.561864991638E-01  3.892099409337E-01  6.211697127318E-02
H34 -1.561864991638E-01 -3.892099409337E-01 -6.211697127318E-02
H35 -1.240837477847E-01 -4.191349060897E-01  9.629959015795E-02
H36  1.240837477847E-01  4.191349060897E-01 -9.629959015795E-02
C37 -4.461300649455E-01 -4.318667930445E-01  4.029596574307E-01
C38  4.461300649455E-01  4.318667930445E-01 -4.029596574307E-01
C39  4.931508173288E-01 -3.144473844534E-01  3.312425512840E-01
C40 -4.931508173288E-01  3.144473844534E-01 -3.312425512840E-01
C41 -4.917850534525E-01 -4.157368413889E-01  2.432101336912E-01
C42  4.917850534525E-01  4.157368413889E-01 -2.432101336912E-01
C43  4.527248298023E-01 -2.977462261671E-01  1.699823841983E-01
C44 -4.527248298023E-01  2.977462261671E-01 -1.699823841983E-01
C45  4.743550156245E-01 -3.958932253621E-01  8.455262774958E-02
C46 -4.743550156245E-01  3.958932253621E-01 -8.455262774958E-02
C47  4.222941126189E-01 -2.759903759648E-01  1.100257203546E-02
C48 -4.222941126189E-01  2.759903759648E-01 -1.100257203546E-02
C49 -4.461961273258E-01  3.732661644394E-01  7.315044517139E-02
C50  4.461961273258E-01 -3.732661644394E-01 -7.315044517139E-02
C51 -3.923936082357E-01  2.541829612406E-01  1.479585041451E-01
C52  3.923936082357E-01 -2.541829612406E-01 -1.479585041451E-01
C53 -4.124259717884E-01  3.538135064524E-01  2.318703771135E-01
C54  4.124259717884E-01 -3.538135064524E-01 -2.318703771135E-01
C55 -3.510141677733E-01  2.373716671151E-01  3.092958885887E-01
C56  3.510141677733E-01 -2.373716671151E-01 -3.092958885887E-01
C57 -3.664499247804E-01  3.413711509976E-01  3.920739292086E-01
C58  3.664499247804E-01 -3.413711509976E-01 -3.920739292086E-01
H59 -4.571785515482E-01 -3.510673863390E-01  4.696181978684E-01
H60  4.571785515482E-01  3.510673863390E-01 -4.696181978684E-01
H61  4.335006992511E-01 -1.412336453255E-01  3.399073965550E-01
H62 -4.335006992511E-01  1.412336453255E-01 -3.399073965550E-01
H63  3.925542003052E-01 -1.246905564015E-01  1.785701802865E-01
H64 -3.925542003052E-01  1.246905564015E-01 -1.785701802865E-01
H65  3.614620856400E-01 -1.032364822799E-01  1.945431463348E-02
H66 -3.614620856400E-01  1.032364822799E-01 -1.945431463348E-02
H67 -3.310266988419E-01  8.164833350013E-02  1.397007197665E-01
H68  3.310266988419E-01 -8.164833350013E-02 -1.397007197665E-01
H69 -2.892961670673E-01  6.528463177666E-02  3.008342486138E-01
H70  2.892961670673E-01 -6.528463177666E-02 -3.008342486138E-01
H71 -3.169147830627E-01  2.522700109140E-01  4.508111892491E-01
H72  3.169147830627E-01 -2.522700109140E-01 -4.508111892491E-01


#===END

data_OPT_STEP_20

_symmetry_space_group_name_H-M 'P 1'
_cell_length_a      7.25015116
_cell_length_b      5.92415756
_cell_length_c     15.66244834
_cell_angle_alpha  101.930518
_cell_angle_beta  112.291289
_cell_angle_gamma   85.633543

loop_
_atom_site_label
_atom_site_fract_x
_atom_site_fract_y
_atom_site_fract_z
C1  1.239654109560E-01  3.507728249838E-02  4.112330127027E-01
C2 -1.239654109560E-01 -3.507728249838E-02 -4.112330127027E-01
C3 -2.406177417702E-02 -2.805408495651E-01  2.821018272158E-01
C4  2.406177417702E-02  2.805408495651E-01 -2.821018272158E-01
C5  3.595857907871E-02 -1.884632458623E-01  3.753333520651E-01
C6 -3.595857907871E-02  1.884632458623E-01 -3.753333520651E-01
C7  1.493510070193E-01  1.600422450209E-01  3.528327849437E-01
C8 -1.493510070193E-01 -1.600422450209E-01 -3.528327849437E-01
C9  9.116268477789E-02  6.900658029478E-02  2.544921887806E-01
C10 -9.116268477789E-02 -6.900658029478E-02 -2.544921887806E-01
C11  1.191894911867E-01  1.899329421693E-01  1.937860258018E-01
C12 -1.191894911867E-01 -1.899329421693E-01 -1.937860258018E-01
C13  6.083045708581E-02  9.874063393689E-02  9.702778647791E-02
C14 -6.083045708581E-02 -9.874063393689E-02 -9.702778647791E-02
C15  8.823814945471E-02  2.193984082105E-01  3.519618343286E-02
C16 -8.823814945471E-02 -2.193984082105E-01 -3.519618343286E-02
C17 -2.986921263798E-02 -1.276690186822E-01  6.065337701415E-02
C18  2.986921263798E-02  1.276690186822E-01 -6.065337701415E-02
C19 -5.671356143026E-02 -2.489457942151E-01  1.233195565742E-01
C20  5.671356143026E-02  2.489457942151E-01 -1.233195565742E-01
C21  1.671362479514E-03 -1.573092311718E-01  2.182375397798E-01
C22 -1.671362479514E-03  1.573092311718E-01 -2.182375397798E-01
H23  1.700346252364E-01  1.061105698714E-01  4.858838752259E-01
H24 -1.700346252364E-01 -1.061105698714E-01 -4.858838752259E-01
H25 -9.249020321955E-02 -4.498057359099E-01  2.544332533844E-01
H26  9.249020321955E-02  4.498057359099E-01 -2.544332533844E-01
H27  1.577345213587E-02 -2.859301675230E-01  4.226682453225E-01
H28 -1.577345213587E-02  2.859301675230E-01 -4.226682453225E-01
H29  2.127235491722E-01  3.324031879084E-01  3.787471981087E-01
H30 -2.127235491722E-01 -3.324031879084E-01 -3.787471981087E-01
H31  1.878045153051E-01  3.593165560597E-01  2.210588674910E-01
H32 -1.878045153051E-01 -3.593165560597E-01 -2.210588674910E-01
H33  1.564805741920E-01  3.888735744727E-01  6.230561295060E-02
H34 -1.564805741920E-01 -3.888735744727E-01 -6.230561295060E-02
H35 -1.244758197586E-01 -4.188592534103E-01  9.613843654962E-02
H36  1.244758197586E-01  4.188592534103E-01 -9.613843654962E-02
C37 -4.469425695639E-01 -4.321212406985E-01  4.028801152079E-01
C38  4.469425695639E-01  4.321212406985E-01 -4.028801152079E-01
C39  4.922469035423E-01 -3.148931394021E-01  3.310662745435E-01
C40 -4.922469035423E-01  3.148931394021E-01 -3.310662745435E-01
C41 -4.925774777949E-01 -4.161185003775E-01  2.430788211222E-01
C42  4.925774777949E-01  4.161185003775E-01 -2.430788211222E-01
C43  4.519221588088E-01 -2.982497520137E-01  1.697737751646E-01
C44 -4.519221588088E-01  2.982497520137E-01 -1.697737751646E-01
C45  4.739601051886E-01 -3.961515946775E-01  8.445332432663E-02
C46 -4.739601051886E-01  3.961515946775E-01 -8.445332432663E-02
C47  4.221328693669E-01 -2.762274227103E-01  1.087500745261E-02
C48 -4.221328693669E-01  2.762274227103E-01 -1.087500745261E-02
C49 -4.464935933580E-01  3.732164005416E-01  7.317095438737E-02
C50  4.464935933580E-01 -3.732164005416E-01 -7.317095438737E-02
C51 -3.929796505225E-01  2.540915997789E-01  1.479854767840E-01
C52  3.929796505225E-01 -2.540915997789E-01 -1.479854767840E-01
C53 -4.132441407757E-01  3.535558778919E-01  2.318434409813E-01
C54  4.132441407757E-01 -3.535558778919E-01 -2.318434409813E-01
C55 -3.519616732436E-01  2.371916917746E-01  3.093204348882E-01
C56  3.519616732436E-01 -2.371916917746E-01 -3.093204348882E-01
C57 -3.673992750733E-01  3.411721338802E-01  3.920780701532E-01
C58  3.673992750733E-01 -3.411721338802E-01 -3.920780701532E-01
H59 -4.579391467197E-01 -3.512822895172E-01  4.695245886172E-01
H60  4.579391467197E-01  3.512822895172E-01 -4.695245886172E-01
H61  4.325554817519E-01 -1.418204187205E-01  3.396418063729E-01
H62 -4.325554817519E-01  1.418204187205E-01 -3.396418063729E-01
H63  3.917555266820E-01 -1.253068109671E-01  1.782886056121E-01
H64 -3.917555266820E-01  1.253068109671E-01 -1.782886056121E-01
H65  3.613026344134E-01 -1.035799807994E-01  1.925082800701E-02
H66 -3.613026344134E-01  1.035799807994E-01 -1.925082800701E-02
H67 -3.316077481209E-01  8.165868424556E-02  1.398080663320E-01
H68  3.316077481209E-01 -8.165868424556E-02 -1.398080663320E-01
H69 -2.903366706454E-01  6.514973254685E-02  3.009237071941E-01
H70  2.903366706454E-01 -6.514973254685E-02 -3.009237071941E-01
H71 -3.179756925700E-01  2.520964521788E-01  4.508567789459E-01
H72  3.179756925700E-01 -2.520964521788E-01 -4.508567789459E-01


#===END

data_OPT_STEP_21

_symmetry_space_group_name_H-M 'P 1'
_cell_length_a      7.25956785
_cell_length_b      5.91709509
_cell_length_c     15.65435033
_cell_angle_alpha  101.915542
_cell_angle_beta  112.320471
_cell_angle_gamma   85.671948

loop_
_atom_site_label
_atom_site_fract_x
_atom_site_fract_y
_atom_site_fract_z
C1  1.235724108400E-01  3.476248079627E-02  4.114082491677E-01
C2 -1.235724108400E-01 -3.476248079627E-02 -4.114082491677E-01
C3 -2.482456499736E-02 -2.808337282507E-01  2.821397669920E-01
C4  2.482456499736E-02  2.808337282507E-01 -2.821397669920E-01
C5  3.542852731692E-02 -1.888605033775E-01  3.754557688156E-01
C6 -3.542852731692E-02  1.888605033775E-01 -3.754557688156E-01
C7  1.486454003167E-01  1.600950816198E-01  3.529674112702E-01
C8 -1.486454003167E-01 -1.600950816198E-01 -3.529674112702E-01
C9  9.025767091018E-02  6.923282989005E-02  2.545634225115E-01
C10 -9.025767091018E-02 -6.923282989005E-02 -2.545634225115E-01
C11  1.186021472729E-01  1.902089934454E-01  1.938870802341E-01
C12 -1.186021472729E-01 -1.902089934454E-01 -1.938870802341E-01
C13  6.056877240784E-02  9.886538866355E-02  9.707069961930E-02
C14 -6.056877240784E-02 -9.886538866355E-02 -9.707069961930E-02
C15  8.828131372849E-02  2.196321598172E-01  3.528179727999E-02
C16 -8.828131372849E-02 -2.196321598172E-01 -3.528179727999E-02
C17 -3.024476472614E-02 -1.277393856157E-01  6.062811191425E-02
C18  3.024476472614E-02  1.277393856157E-01 -6.062811191425E-02
C19 -5.741801800722E-02 -2.490768984777E-01  1.232614468978E-01
C20  5.741801800722E-02  2.490768984777E-01 -1.232614468978E-01
C21  7.512892179254E-04 -1.573158538721E-01  2.182439360472E-01
C22 -7.512892179254E-04  1.573158538721E-01 -2.182439360472E-01
H23  1.700103020900E-01  1.056125874989E-01  4.861270053851E-01
H24 -1.700103020900E-01 -1.056125874989E-01 -4.861270053851E-01
H25 -9.322031396741E-02 -4.503016985682E-01  2.544366286788E-01
H26  9.322031396741E-02  4.503016985682E-01 -2.544366286788E-01
H27  1.565806564369E-02 -2.867460520470E-01  4.228331438358E-01
H28 -1.565806564369E-02  2.867460520470E-01 -4.228331438358E-01
H29  2.121661072869E-01  3.323528887197E-01  3.788709798241E-01
H30 -2.121661072869E-01 -3.323528887197E-01 -3.788709798241E-01
H31  1.874879134223E-01  3.595794996133E-01  2.212396643689E-01
H32 -1.874879134223E-01 -3.595794996133E-01 -2.212396643689E-01
H33  1.565052287034E-01  3.893024348341E-01  6.245791552589E-02
H34 -1.565052287034E-01 -3.893024348341E-01 -6.245791552589E-02
H35 -1.251291860628E-01 -4.192126477027E-01  9.602544580099E-02
H36  1.251291860628E-01  4.192126477027E-01 -9.602544580099E-02
C37 -4.477942182393E-01 -4.320611910678E-01  4.029726058084E-01
C38  4.477942182393E-01  4.320611910678E-01 -4.029726058084E-01
C39  4.918437477318E-01 -3.146595806833E-01  3.311290568687E-01
C40 -4.918437477318E-01  3.146595806833E-01 -3.311290568687E-01
C41 -4.925714679056E-01 -4.158207877724E-01  2.432022292121E-01
C42  4.925714679056E-01  4.158207877724E-01 -2.432022292121E-01
C43  4.518451767092E-01 -2.980329203320E-01  1.697898819149E-01
C44 -4.518451767092E-01  2.980329203320E-01 -1.697898819149E-01
C45  4.739219064303E-01 -3.960340917149E-01  8.445927638066E-02
C46 -4.739219064303E-01  3.960340917149E-01 -8.445927638066E-02
C47  4.218805328025E-01 -2.762533058419E-01  1.075025656250E-02
C48 -4.218805328025E-01  2.762533058419E-01 -1.075025656250E-02
C49 -4.463317202877E-01  3.733284866291E-01  7.329703418424E-02
C50  4.463317202877E-01 -3.733284866291E-01 -7.329703418424E-02
C51 -3.929258090150E-01  2.541368520405E-01  1.481848568171E-01
C52  3.929258090150E-01 -2.541368520405E-01 -1.481848568171E-01
C53 -4.134014762661E-01  3.536454175857E-01  2.320298043846E-01
C54  4.134014762661E-01 -3.536454175857E-01 -2.320298043846E-01
C55 -3.526930489608E-01  2.370118561485E-01  3.095096947171E-01
C56  3.526930489608E-01 -2.370118561485E-01 -3.095096947171E-01
C57 -3.684651199876E-01  3.409985219820E-01  3.922309493198E-01
C58  3.684651199876E-01 -3.409985219820E-01 -3.922309493198E-01
H59 -4.591745205030E-01 -3.511879175155E-01  4.695463465105E-01
H60  4.591745205030E-01  3.511879175155E-01 -4.695463465105E-01
H61  4.320864368753E-01 -1.415127700620E-01  3.396286800242E-01
H62 -4.320864368753E-01  1.415127700620E-01 -3.396286800242E-01
H63  3.916199441411E-01 -1.250133248361E-01  1.782331536371E-01
H64 -3.916199441411E-01  1.250133248361E-01 -1.782331536371E-01
H65  3.610098624741E-01 -1.035271244338E-01  1.905940646722E-02
H66 -3.610098624741E-01  1.035271244338E-01 -1.905940646722E-02
H67 -3.317428987142E-01  8.148222197881E-02  1.400321527456E-01
H68  3.317428987142E-01 -8.148222197881E-02 -1.400321527456E-01
H69 -2.914449124940E-01  6.464295618414E-02  3.011132216373E-01
H70  2.914449124940E-01 -6.464295618414E-02 -3.011132216373E-01
H71 -3.194684544026E-01  2.517229367943E-01  4.510176098127E-01
H72  3.194684544026E-01 -2.517229367943E-01 -4.510176098127E-01


#===END

data_OPT_STEP_22

_symmetry_space_group_name_H-M 'P 1'
_cell_length_a      7.24768857
_cell_length_b      5.93097216
_cell_length_c     15.63972818
_cell_angle_alpha  101.932697
_cell_angle_beta  112.420935
_cell_angle_gamma   85.477382

loop_
_atom_site_label
_atom_site_fract_x
_atom_site_fract_y
_atom_site_fract_z
C1  1.240087917341E-01  3.438391976239E-02  4.118628225402E-01
C2 -1.240087917341E-01 -3.438391976239E-02 -4.118628225402E-01
C3 -2.553549674421E-02 -2.795205229061E-01  2.823766657979E-01
C4  2.553549674421E-02  2.795205229061E-01 -2.823766657979E-01
C5  3.527852259664E-02 -1.881565648672E-01  3.758358452676E-01
C6 -3.527852259664E-02  1.881565648672E-01 -3.758358452676E-01
C7  1.481150541179E-01  1.598701285251E-01  3.532923100636E-01
C8 -1.481150541179E-01 -1.598701285251E-01 -3.532923100636E-01
C9  8.981081782739E-02  6.917422997702E-02  2.547833770751E-01
C10 -8.981081782739E-02 -6.917422997702E-02 -2.547833770751E-01
C11  1.181061099100E-01  1.899851472616E-01  1.940830431628E-01
C12 -1.181061099100E-01 -1.899851472616E-01 -1.940830431628E-01
C13  6.026768980246E-02  9.857796791816E-02  9.714220611134E-02
C14 -6.026768980246E-02 -9.857796791816E-02 -9.714220611134E-02
C15  8.776564735634E-02  2.193419991551E-01  3.530994139618E-02
C16 -8.776564735634E-02 -2.193419991551E-01 -3.530994139618E-02
C17 -2.994531121302E-02 -1.275686831881E-01  6.070668819550E-02
C18  2.994531121302E-02  1.275686831881E-01 -6.070668819550E-02
C19 -5.718316992252E-02 -2.486616708562E-01  1.233662718727E-01
C20  5.718316992252E-02  2.486616708562E-01 -1.233662718727E-01
C21  5.803162179190E-04 -1.568309077175E-01  2.184453115925E-01
C22 -5.803162179189E-04  1.568309077175E-01 -2.184453115925E-01
H23  1.711658127814E-01  1.046115102854E-01  4.866998415535E-01
H24 -1.711658127814E-01 -1.046115102854E-01 -4.866998415535E-01
H25 -9.436125946283E-02 -4.481502496839E-01  2.546283257590E-01
H26  9.436125946283E-02  4.481502496839E-01 -2.546283257590E-01
H27  1.512997309185E-02 -2.853747925554E-01  4.232611865427E-01
H28 -1.512997309185E-02  2.853747925554E-01 -4.232611865427E-01
H29  2.110589487980E-01  3.318438732696E-01  3.791893793470E-01
H30 -2.110589487980E-01 -3.318438732696E-01 -3.791893793470E-01
H31  1.873419054749E-01  3.586557726510E-01  2.215024627725E-01
H32 -1.873419054749E-01 -3.586557726510E-01 -2.215024627725E-01
H33  1.555887606677E-01  3.888559050568E-01  6.252456600670E-02
H34 -1.555887606677E-01 -3.888559050568E-01 -6.252456600670E-02
H35 -1.248138898074E-01 -4.182881661531E-01  9.607995114911E-02
H36  1.248138898074E-01  4.182881661531E-01 -9.607995114911E-02
C37 -4.495956217622E-01 -4.318920596790E-01  4.030972595047E-01
C38  4.495956217622E-01  4.318920596790E-01 -4.030972595047E-01
C39  4.912379698401E-01 -3.141225702841E-01  3.313009976407E-01
C40 -4.912379698401E-01  3.141225702841E-01 -3.313009976407E-01
C41 -4.924647735230E-01 -4.152548623825E-01  2.434517633867E-01
C42  4.924647735230E-01  4.152548623825E-01 -2.434517633867E-01
C43  4.522081743795E-01 -2.974529370176E-01  1.699796332925E-01
C44 -4.522081743795E-01  2.974529370176E-01 -1.699796332925E-01
C45  4.740914531830E-01 -3.958307612486E-01  8.453616355801E-02
C46 -4.740914531830E-01  3.958307612486E-01 -8.453616355801E-02
C47  4.218475428858E-01 -2.762943238033E-01  1.067793489407E-02
C48 -4.218475428858E-01  2.762943238033E-01 -1.067793489407E-02
C49 -4.460143506613E-01  3.736836219118E-01  7.347656505819E-02
C50  4.460143506613E-01 -3.736836219118E-01 -7.347656505819E-02
C51 -3.925173750682E-01  2.547485843836E-01  1.485302665614E-01
C52  3.925173750682E-01 -2.547485843836E-01 -1.485302665614E-01
C53 -4.132737397235E-01  3.542109472647E-01  2.323723203604E-01
C54  4.132737397235E-01 -3.542109472647E-01 -2.323723203604E-01
C55 -3.536260288624E-01  2.373656505991E-01  3.098433241103E-01
C56  3.536260288624E-01 -2.373656505991E-01 -3.098433241103E-01
C57 -3.705358189240E-01  3.409770880068E-01  3.924151358264E-01
C58  3.705358189240E-01 -3.409770880068E-01 -3.924151358264E-01
H59 -4.622790194612E-01 -3.513954561690E-01  4.694574060694E-01
H60  4.622790194612E-01  3.513954561690E-01 -4.694574060694E-01
H61  4.316494929514E-01 -1.409915499273E-01  3.397430831782E-01
H62 -4.316494929514E-01  1.409915499273E-01 -3.397430831782E-01
H63  3.922279941303E-01 -1.243970147009E-01  1.784087148513E-01
H64 -3.922279941303E-01  1.243970147009E-01 -1.784087148513E-01
H65  3.610161488023E-01 -1.036173860267E-01  1.895439306383E-02
H66 -3.610161488023E-01  1.036173860267E-01 -1.895439306383E-02
H67 -3.313065724950E-01  8.213378806534E-02  1.404257799565E-01
H68  3.313065724950E-01 -8.213378806534E-02 -1.404257799565E-01
H69 -2.925594546828E-01  6.490257455231E-02  3.014929678911E-01
H70  2.925594546828E-01 -6.490257455231E-02 -3.014929678911E-01
H71 -3.229387403123E-01  2.511131265860E-01  4.510920831713E-01
H72  3.229387403123E-01 -2.511131265860E-01 -4.510920831713E-01


#===END

data_OPT_STEP_23

_symmetry_space_group_name_H-M 'P 1'
_cell_length_a      7.26444367
_cell_length_b      5.92509247
_cell_length_c     15.62504165
_cell_angle_alpha  101.846388
_cell_angle_beta  112.483376
_cell_angle_gamma   85.706758

loop_
_atom_site_label
_atom_site_fract_x
_atom_site_fract_y
_atom_site_fract_z
C1  1.223032650705E-01  3.331782949714E-02  4.120678401108E-01
C2 -1.223032650705E-01 -3.331782949714E-02 -4.120678401108E-01
C3 -2.618133631678E-02 -2.817443968340E-01  2.822708697622E-01
C4  2.618133631678E-02  2.817443968340E-01 -2.822708697622E-01
C5  3.459149685831E-02 -1.905295190190E-01  3.758733382082E-01
C6 -3.459149685831E-02  1.905295190190E-01 -3.758733382082E-01
C7  1.464007913633E-01  1.593698994841E-01  3.535301326768E-01
C8 -1.464007913633E-01 -1.593698994841E-01 -3.535301326768E-01
C9  8.905344032719E-02  6.830401010292E-02  2.549163412853E-01
C10 -8.905344032719E-02 -6.830401010292E-02 -2.549163412853E-01
C11  1.171415420650E-01  1.902053395150E-01  1.943035901099E-01
C12 -1.171415420650E-01 -1.902053395150E-01 -1.943035901099E-01
C13  5.980741949026E-02  9.852974142159E-02  9.722724299668E-02
C14 -5.980741949026E-02 -9.852974142159E-02 -9.722724299668E-02
C15  8.840022559004E-02  2.195046013997E-01  3.555229789677E-02
C16 -8.840022559004E-02 -2.195046013997E-01 -3.555229789677E-02
C17 -3.070883246921E-02 -1.277581591692E-01  6.059575419630E-02
C18  3.070883246921E-02  1.277581591692E-01 -6.059575419630E-02
C19 -5.825253206141E-02 -2.495722580167E-01  1.231698746066E-01
C20  5.825253206141E-02  2.495722580167E-01 -1.231698746066E-01
C21 -2.420441092228E-04 -1.581072387694E-01  2.183789288748E-01
C22  2.420441092229E-04  1.581072387694E-01 -2.183789288748E-01
H23  1.687203806784E-01  1.040138107316E-01  4.869720095181E-01
H24 -1.687203806784E-01 -1.040138107316E-01 -4.869720095181E-01
H25 -9.422560802224E-02 -4.512667024583E-01  2.544259178662E-01
H26  9.422560802224E-02  4.512667024583E-01 -2.544259178662E-01
H27  1.458073418630E-02 -2.882888163130E-01  4.233034631198E-01
H28 -1.458073418630E-02  2.882888163130E-01 -4.233034631198E-01
H29  2.090497640467E-01  3.319470390102E-01  3.796729421905E-01
H30 -2.090497640467E-01 -3.319470390102E-01 -3.796729421905E-01
H31  1.859341452180E-01  3.596980049638E-01  2.218764943177E-01
H32 -1.859341452180E-01 -3.596980049638E-01 -2.218764943177E-01
H33  1.568464965365E-01  3.890387739566E-01  6.297650598189E-02
H34 -1.568464965365E-01 -3.890387739566E-01 -6.297650598189E-02
H35 -1.264391132662E-01 -4.192043674354E-01  9.567974872826E-02
H36  1.264391132662E-01  4.192043674354E-01 -9.567974872826E-02
C37 -4.508852813738E-01 -4.322072489392E-01  4.032303489178E-01
C38  4.508852813738E-01  4.322072489392E-01 -4.032303489178E-01
C39  4.909964799401E-01 -3.142764695098E-01  3.313891110028E-01
C40 -4.909964799401E-01  3.142764695098E-01 -3.313891110028E-01
C41 -4.925260978227E-01 -4.154593872466E-01  2.435760975495E-01
C42  4.925260978227E-01  4.154593872466E-01 -2.435760975495E-01
C43  4.520416086539E-01 -2.978590375608E-01  1.699416083370E-01
C44 -4.520416086539E-01  2.978590375608E-01 -1.699416083370E-01
C45  4.739807623488E-01 -3.960767745212E-01  8.449341393504E-02
C46 -4.739807623488E-01  3.960767745212E-01 -8.449341393504E-02
C47  4.219096329518E-01 -2.764868116873E-01  1.052773471449E-02
C48 -4.219096329518E-01  2.764868116873E-01 -1.052773471449E-02
C49 -4.459781158605E-01  3.737823219406E-01  7.364224023864E-02
C50  4.459781158605E-01 -3.737823219406E-01 -7.364224023864E-02
C51 -3.924357823948E-01  2.549629865456E-01  1.488914512041E-01
C52  3.924357823948E-01 -2.549629865456E-01 -1.488914512041E-01
C53 -4.132480469187E-01  3.543434825834E-01  2.327118880750E-01
C54  4.132480469187E-01 -3.543434825834E-01 -2.327118880750E-01
C55 -3.541944194183E-01  2.374852454571E-01  3.103388108761E-01
C56  3.541944194183E-01 -2.374852454571E-01 -3.103388108761E-01
C57 -3.722705587553E-01  3.406669991491E-01  3.926975747809E-01
C58  3.722705587553E-01 -3.406669991491E-01 -3.926975747809E-01
H59 -4.642068478359E-01 -3.516634306159E-01  4.694584276497E-01
H60  4.642068478359E-01  3.516634306159E-01 -4.694584276497E-01
H61  4.317912761291E-01 -1.411662730144E-01  3.396968673883E-01
H62 -4.317912761291E-01  1.411662730144E-01 -3.396968673883E-01
H63  3.918894851832E-01 -1.251431445477E-01  1.782089706568E-01
H64 -3.918894851832E-01  1.251431445477E-01 -1.782089706568E-01
H65  3.610495249810E-01 -1.041029077157E-01  1.869751742674E-02
H66 -3.610495249810E-01  1.041029077157E-01 -1.869751742674E-02
H67 -3.312267242031E-01  8.261830017991E-02  1.409118390636E-01
H68  3.312267242031E-01 -8.261830017991E-02 -1.409118390636E-01
H69 -2.928478151490E-01  6.544539996884E-02  3.022288789697E-01
H70  2.928478151490E-01 -6.544539996884E-02 -3.022288789697E-01
H71 -3.259441366607E-01  2.504716901590E-01  4.513517759458E-01
H72  3.259441366607E-01 -2.504716901590E-01 -4.513517759458E-01


#===END

data_OPT_STEP_24

_symmetry_space_group_name_H-M 'P 1'
_cell_length_a      7.31512030
_cell_length_b      5.90265446
_cell_length_c     15.62846751
_cell_angle_alpha  101.953867
_cell_angle_beta  112.842368
_cell_angle_gamma   85.219712

loop_
_atom_site_label
_atom_site_fract_x
_atom_site_fract_y
_atom_site_fract_z
C1  1.202264885898E-01  3.568564593434E-02  4.124018766031E-01
C2 -1.202264885898E-01 -3.568564593434E-02 -4.124018766031E-01
C3 -2.732672255296E-02 -2.800005241579E-01  2.821641793790E-01
C4  2.732672255296E-02  2.800005241579E-01 -2.821641793790E-01
C5  3.344105667488E-02 -1.888355227827E-01  3.759510667365E-01
C6 -3.344105667488E-02  1.888355227827E-01 -3.759510667365E-01
C7  1.453386285630E-01  1.608139556231E-01  3.539684140817E-01
C8 -1.453386285630E-01 -1.608139556231E-01 -3.539684140817E-01
C9  8.765206459813E-02  7.002943442120E-02  2.551130201533E-01
C10 -8.765206459813E-02 -7.002943442120E-02 -2.551130201533E-01
C11  1.163554099053E-01  1.912717241557E-01  1.946029236228E-01
C12 -1.163554099053E-01 -1.912717241557E-01 -1.946029236228E-01
C13  5.885404664433E-02  9.945930971061E-02  9.732251776527E-02
C14 -5.885404664433E-02 -9.945930971061E-02 -9.732251776527E-02
C15  8.797012892785E-02  2.197479648363E-01  3.575171947728E-02
C16 -8.797012892785E-02 -2.197479648363E-01 -3.575171947728E-02
C17 -3.125910726239E-02 -1.269800701071E-01  6.052996290378E-02
C18  3.125910726239E-02  1.269800701071E-01 -6.052996290378E-02
C19 -5.949335585777E-02 -2.479978114485E-01  1.229681110906E-01
C20  5.949335585777E-02  2.479978114485E-01 -1.229681110906E-01
C21 -1.763660811117E-03 -1.562386222562E-01  2.183238544903E-01
C22  1.763660811117E-03  1.562386222562E-01 -2.183238544903E-01
H23  1.654560486185E-01  1.073532929092E-01  4.873926364003E-01
H24 -1.654560486185E-01 -1.073532929092E-01 -4.873926364003E-01
H25 -9.531648076741E-02 -4.494947627167E-01  2.540950394528E-01
H26  9.531648076741E-02  4.494947627167E-01 -2.540950394528E-01
H27  1.392163391998E-02 -2.866653690292E-01  4.233969742591E-01
H28 -1.392163391998E-02  2.866653690292E-01 -4.233969742591E-01
H29  2.074834699991E-01  3.337606183587E-01  3.805257182210E-01
H30 -2.074834699991E-01 -3.337606183587E-01 -3.805257182210E-01
H31  1.849153258333E-01  3.609103407411E-01  2.223349119892E-01
H32 -1.849153258333E-01 -3.609103407411E-01 -2.223349119892E-01
H33  1.558215045185E-01  3.896899277663E-01  6.333228606094E-02
H34 -1.558215045185E-01 -3.896899277663E-01 -6.333228606094E-02
H35 -1.267678786790E-01 -4.181256029528E-01  9.535396837055E-02
H36  1.267678786790E-01  4.181256029528E-01 -9.535396837055E-02
C37 -4.533322336085E-01 -4.341243290643E-01  4.028894844200E-01
C38  4.533322336085E-01  4.341243290643E-01 -4.028894844200E-01
C39  4.877874212129E-01 -3.159895661325E-01  3.307954490611E-01
C40 -4.877874212129E-01  3.159895661325E-01 -3.307954490611E-01
C41 -4.947446747998E-01 -4.171608373406E-01  2.431543011874E-01
C42  4.947446747998E-01  4.171608373406E-01 -2.431543011874E-01
C43  4.504170765084E-01 -2.981239481102E-01  1.696076047566E-01
C44 -4.504170765084E-01  2.981239481102E-01 -1.696076047566E-01
C45  4.730067741471E-01 -3.962968293898E-01  8.429408243982E-02
C46 -4.730067741471E-01  3.962968293898E-01 -8.429408243982E-02
C47  4.207718193496E-01 -2.756627999633E-01  1.029245731013E-02
C48 -4.207718193496E-01  2.756627999633E-01 -1.029245731013E-02
C49 -4.459301581173E-01  3.725612492962E-01  7.366954788673E-02
C50  4.459301581173E-01 -3.725612492962E-01 -7.366954788673E-02
C51 -3.929014853084E-01  2.524492975566E-01  1.488385682336E-01
C52  3.929014853084E-01 -2.524492975566E-01 -1.488385682336E-01
C53 -4.147526582880E-01  3.515357553745E-01  2.324871940083E-01
C54  4.147526582880E-01 -3.515357553745E-01 -2.324871940083E-01
C55 -3.567448420794E-01  2.335054202279E-01  3.100417455766E-01
C56  3.567448420794E-01 -2.335054202279E-01 -3.100417455766E-01
C57 -3.744895200110E-01  3.373809537473E-01  3.924348530435E-01
C58  3.744895200110E-01 -3.373809537473E-01 -3.924348530435E-01
H59 -4.660622290905E-01 -3.523886903073E-01  4.691977281391E-01
H60  4.660622290905E-01  3.523886903073E-01 -4.691977281391E-01
H61  4.272338505223E-01 -1.424566140981E-01  3.387675673294E-01
H62 -4.272338505223E-01  1.424566140981E-01 -3.387675673294E-01
H63  3.899355949399E-01 -1.245176864030E-01  1.778216039651E-01
H64 -3.899355949399E-01  1.245176864030E-01 -1.778216039651E-01
H65  3.588566571126E-01 -1.028096827391E-01  1.828868451850E-02
H66 -3.588566571126E-01  1.028096827391E-01 -1.828868451850E-02
H67 -3.306914215056E-01  7.964315541032E-02  1.410667657387E-01
H68  3.306914215056E-01 -7.964315541032E-02 -1.410667657387E-01
H69 -2.964633641873E-01  5.974254224838E-02  3.018190717637E-01
H70  2.964633641873E-01 -5.974254224838E-02 -3.018190717637E-01
H71 -3.283898450537E-01  2.465370213519E-01  4.511030872631E-01
H72  3.283898450537E-01 -2.465370213519E-01 -4.511030872631E-01


#===END

data_OPT_STEP_25

_symmetry_space_group_name_H-M 'P 1'
_cell_length_a      7.27595104
_cell_length_b      5.91998531
_cell_length_c     15.62589880
_cell_angle_alpha  101.866898
_cell_angle_beta  112.566296
_cell_angle_gamma   85.591650

loop_
_atom_site_label
_atom_site_fract_x
_atom_site_fract_y
_atom_site_fract_z
C1  1.218669490976E-01  3.350097971806E-02  4.121162728662E-01
C2 -1.218669490976E-01 -3.350097971806E-02 -4.121162728662E-01
C3 -2.628214496365E-02 -2.817268952756E-01  2.821738562244E-01
C4  2.628214496365E-02  2.817268952756E-01 -2.821738562244E-01
C5  3.417244103806E-02 -1.904566423190E-01  3.758042959208E-01
C6 -3.417244103806E-02  1.904566423190E-01 -3.758042959208E-01
C7  1.467438816882E-01  1.590773771934E-01  3.536665865748E-01
C8 -1.467438816882E-01 -1.590773771934E-01 -3.536665865748E-01
C9  8.873513259998E-02  6.862085122717E-02  2.549508034871E-01
C10 -8.873513259998E-02 -6.862085122717E-02 -2.549508034871E-01
C11  1.173269302584E-01  1.901549979688E-01  1.943977844865E-01
C12 -1.173269302584E-01 -1.901549979688E-01 -1.943977844865E-01
C13  5.947067366904E-02  9.878827976692E-02  9.725781099297E-02
C14 -5.947067366904E-02 -9.878827976692E-02 -9.725781099297E-02
C15  8.803482588942E-02  2.197626351663E-01  3.560628574698E-02
C16 -8.803482588942E-02 -2.197626351663E-01 -3.560628574698E-02
C17 -3.078627419021E-02 -1.275772402816E-01  6.056567152734E-02
C18  3.078627419021E-02  1.275772402816E-01 -6.056567152734E-02
C19 -5.855802242065E-02 -2.492383464750E-01  1.230774217827E-01
C20  5.855802242065E-02  2.492383464750E-01 -1.230774217827E-01
C21 -6.377691105657E-04 -1.577235832172E-01  2.183139727041E-01
C22  6.377691105658E-04  1.577235832172E-01 -2.183139727041E-01
H23  1.678794302607E-01  1.044271735347E-01  4.870398924597E-01
H24 -1.678794302607E-01 -1.044271735347E-01 -4.870398924597E-01
H25 -9.454477265234E-02 -4.510964487049E-01  2.542130156571E-01
H26  9.454477265234E-02  4.510964487049E-01 -2.542130156571E-01
H27  1.404446173419E-02 -2.882239442071E-01  4.231907488135E-01
H28 -1.404446173419E-02  2.882239442071E-01 -4.231907488135E-01
H29  2.092391587382E-01  3.319059562819E-01  3.800207696817E-01
H30 -2.092391587382E-01 -3.319059562819E-01 -3.800207696817E-01
H31  1.863087516722E-01  3.595347236742E-01  2.220237860882E-01
H32 -1.863087516722E-01 -3.595347236742E-01 -2.220237860882E-01
H33  1.562760884387E-01  3.894708160089E-01  6.308341599836E-02
H34 -1.562760884387E-01 -3.894708160089E-01 -6.308341599836E-02
H35 -1.260296677210E-01 -4.193195003390E-01  9.556911070305E-02
H36  1.260296677210E-01  4.193195003390E-01 -9.556911070305E-02
C37 -4.513984636377E-01 -4.325936695077E-01  4.031439414319E-01
C38  4.513984636377E-01  4.325936695077E-01 -4.031439414319E-01
C39  4.898982784226E-01 -3.149076467822E-01  3.311681272936E-01
C40 -4.898982784226E-01  3.149076467822E-01 -3.311681272936E-01
C41 -4.930671889142E-01 -4.159105304065E-01  2.434555383864E-01
C42  4.930671889142E-01  4.159105304065E-01 -2.434555383864E-01
C43  4.517669870760E-01 -2.978950091250E-01  1.698672573516E-01
C44 -4.517669870760E-01  2.978950091250E-01 -1.698672573516E-01
C45  4.738249049219E-01 -3.961061384695E-01  8.444858626581E-02
C46 -4.738249049219E-01  3.961061384695E-01 -8.444858626581E-02
C47  4.215074155578E-01 -2.763648838092E-01  1.044228118493E-02
C48 -4.215074155578E-01  2.763648838092E-01 -1.044228118493E-02
C49 -4.459423540228E-01  3.734827360022E-01  7.365187853248E-02
C50  4.459423540228E-01 -3.734827360022E-01 -7.365187853248E-02
C51 -3.925357383932E-01  2.543392411737E-01  1.488796311221E-01
C52  3.925357383932E-01 -2.543392411737E-01 -1.488796311221E-01
C53 -4.136550974047E-01  3.536149909863E-01  2.326377939662E-01
C54  4.136550974047E-01 -3.536149909863E-01 -2.326377939662E-01
C55 -3.549183541078E-01  2.365268992966E-01  3.102517315630E-01
C56  3.549183541078E-01 -2.365268992966E-01 -3.102517315630E-01
C57 -3.725635839510E-01  3.400885241330E-01  3.926578559273E-01
C58  3.725635839510E-01 -3.400885241330E-01 -3.926578559273E-01
H59 -4.645982536593E-01 -3.517368821080E-01  4.693770414465E-01
H60  4.645982536593E-01  3.517368821080E-01 -4.693770414465E-01
H61  4.299190472007E-01 -1.419312269964E-01  3.392987067408E-01
H62 -4.299190472007E-01  1.419312269964E-01 -3.392987067408E-01
H63  3.916221912540E-01 -1.249309935781E-01  1.781361573976E-01
H64 -3.916221912540E-01  1.249309935781E-01 -1.781361573976E-01
H65  3.604031440861E-01 -1.038836172363E-01  1.857480826714E-02
H66 -3.604031440861E-01  1.038836172363E-01 -1.857480826714E-02
H67 -3.309831985484E-01  8.198598453103E-02  1.409709413407E-01
H68  3.309831985484E-01 -8.198598453103E-02 -1.409709413407E-01
H69 -2.943739738319E-01  6.376645692687E-02  3.020214091495E-01
H70  2.943739738319E-01 -6.376645692687E-02 -3.020214091495E-01
H71 -3.263332557997E-01  2.497618928293E-01  4.512954803652E-01
H72  3.263332557997E-01 -2.497618928293E-01 -4.512954803652E-01


#===END

data_OPT_STEP_26

_symmetry_space_group_name_H-M 'P 1'
_cell_length_a      7.28838608
_cell_length_b      5.91407743
_cell_length_c     15.62942807
_cell_angle_alpha  101.855798
_cell_angle_beta  112.670439
_cell_angle_gamma   85.571861

loop_
_atom_site_label
_atom_site_fract_x
_atom_site_fract_y
_atom_site_fract_z
C1  1.218315814515E-01  3.336018494996E-02  4.121427125633E-01
C2 -1.218315814515E-01 -3.336018494996E-02 -4.121427125633E-01
C3 -2.729487013911E-02 -2.812848378993E-01  2.820173689712E-01
C4  2.729487013911E-02  2.812848378993E-01 -2.820173689712E-01
C5  3.332349366417E-02 -1.902009121547E-01  3.756949706938E-01
C6 -3.332349366417E-02  1.902009121547E-01 -3.756949706938E-01
C7  1.465197638530E-01  1.592681875180E-01  3.537475891159E-01
C8 -1.465197638530E-01 -1.592681875180E-01 -3.537475891159E-01
C9  8.841840258533E-02  6.890101242656E-02  2.549761882195E-01
C10 -8.841840258533E-02 -6.890101242656E-02 -2.549761882195E-01
C11  1.171820220613E-01  1.904001608813E-01  1.944738395550E-01
C12 -1.171820220613E-01 -1.904001608813E-01 -1.944738395550E-01
C13  5.950553965627E-02  9.883269674699E-02  9.729413360438E-02
C14 -5.950553965627E-02 -9.883269674699E-02 -9.729413360438E-02
C15  8.786896433975E-02  2.200541637425E-01  3.567134935760E-02
C16 -8.786896433975E-02 -2.200541637425E-01 -3.567134935760E-02
C17 -3.056621951820E-02 -1.277918128883E-01  6.053885324853E-02
C18  3.056621951820E-02  1.277918128883E-01 -6.053885324853E-02
C19 -5.840250861528E-02 -2.495017923991E-01  1.230052656349E-01
C20  5.840250861528E-02  2.495017923991E-01 -1.230052656349E-01
C21 -9.116876611319E-04 -1.576376649694E-01  2.182639897656E-01
C22  9.116876611320E-04  1.576376649694E-01 -2.182639897656E-01
H23  1.685056289587E-01  1.038205729276E-01  4.871396227272E-01
H24 -1.685056289587E-01 -1.038205729276E-01 -4.871396227272E-01
H25 -9.620962562040E-02 -4.503647710112E-01  2.539274882114E-01
H26  9.620962562040E-02  4.503647710112E-01 -2.539274882114E-01
H27  1.342064080011E-02 -2.882840988138E-01  4.230511770455E-01
H28 -1.342064080011E-02  2.882840988138E-01 -4.230511770455E-01
H29  2.093567533665E-01  3.320196467994E-01  3.802291434971E-01
H30 -2.093567533665E-01 -3.320196467994E-01 -3.802291434971E-01
H31  1.860507381252E-01  3.599862085551E-01  2.221552724533E-01
H32 -1.860507381252E-01 -3.599862085551E-01 -2.221552724533E-01
H33  1.561104310841E-01  3.898846797455E-01  6.321355759780E-02
H34 -1.561104310841E-01 -3.898846797455E-01 -6.321355759780E-02
H35 -1.256604640301E-01 -4.198466237815E-01  9.545456829809E-02
H36  1.256604640301E-01  4.198466237815E-01 -9.545456829809E-02
C37 -4.516808928446E-01 -4.328493120033E-01  4.030563561702E-01
C38  4.516808928446E-01  4.328493120033E-01 -4.030563561702E-01
C39  4.893440184390E-01 -3.152124095171E-01  3.309848814604E-01
C40 -4.893440184390E-01  3.152124095171E-01 -3.309848814604E-01
C41 -4.940287634165E-01 -4.164994424007E-01  2.432293573026E-01
C42  4.940287634165E-01  4.164994424007E-01 -2.432293573026E-01
C43  4.507168870387E-01 -2.984446468743E-01  1.695627855574E-01
C44 -4.507168870387E-01  2.984446468743E-01 -1.695627855574E-01
C45  4.734387967932E-01 -3.962929908687E-01  8.432969754504E-02
C46 -4.734387967932E-01  3.962929908687E-01 -8.432969754504E-02
C47  4.214886640846E-01 -2.762170168896E-01  1.034502541251E-02
C48 -4.214886640846E-01  2.762170168896E-01 -1.034502541251E-02
C49 -4.463075484932E-01  3.731297222915E-01  7.363737889451E-02
C50  4.463075484932E-01 -3.731297222915E-01 -7.363737889451E-02
C51 -3.931313333471E-01  2.537388466564E-01  1.488505866038E-01
C52  3.931313333471E-01 -2.537388466564E-01 -1.488505866038E-01
C53 -4.145360951253E-01  3.529039613108E-01  2.325270762270E-01
C54  4.145360951253E-01 -3.529039613108E-01 -2.325270762270E-01
C55 -3.553178170113E-01  2.359791157410E-01  3.102758865957E-01
C56  3.553178170113E-01 -2.359791157410E-01 -3.102758865957E-01
C57 -3.728351715559E-01  3.396768782561E-01  3.926635522203E-01
C58  3.728351715559E-01 -3.396768782561E-01 -3.926635522203E-01
H59 -4.645055064811E-01 -3.517402906700E-01  4.693306647432E-01
H60  4.645055064811E-01  3.517402906700E-01 -4.693306647432E-01
H61  4.297855176758E-01 -1.418597024202E-01  3.391133122246E-01
H62 -4.297855176758E-01  1.418597024202E-01 -3.391133122246E-01
H63  3.905848998750E-01 -1.253205409901E-01  1.777659172028E-01
H64 -3.905848998750E-01  1.253205409901E-01 -1.777659172028E-01
H65  3.606779081440E-01 -1.034204573297E-01  1.846435969262E-02
H66 -3.606779081440E-01  1.034204573297E-01 -1.846435969262E-02
H67 -3.314532893727E-01  8.133435393776E-02  1.410391041351E-01
H68  3.314532893727E-01 -8.133435393776E-02 -1.410391041351E-01
H69 -2.941522176235E-01  6.346415833817E-02  3.022362513167E-01
H70  2.941522176235E-01 -6.346415833817E-02 -3.022362513167E-01
H71 -3.263536504154E-01  2.494139501015E-01  4.513645776417E-01
H72  3.263536504154E-01 -2.494139501015E-01 -4.513645776417E-01


#===END

data_OPT_STEP_27

_symmetry_space_group_name_H-M 'P 1'
_cell_length_a      7.29891436
_cell_length_b      5.91176745
_cell_length_c     15.63450678
_cell_angle_alpha  101.930838
_cell_angle_beta  112.810493
_cell_angle_gamma   85.415215

loop_
_atom_site_label
_atom_site_fract_x
_atom_site_fract_y
_atom_site_fract_z
C1  1.220170976943E-01  3.335478675224E-02  4.122054726849E-01
C2 -1.220170976943E-01 -3.335478675224E-02 -4.122054726849E-01
C3 -2.713669436265E-02 -2.812067871802E-01  2.818447580887E-01
C4  2.713669436265E-02  2.812067871802E-01 -2.818447580887E-01
C5  3.335528930065E-02 -1.900786922011E-01  3.755913422271E-01
C6 -3.335528930065E-02  1.900786922011E-01 -3.755913422271E-01
C7  1.463472189212E-01  1.594881820256E-01  3.538802252254E-01
C8 -1.463472189212E-01 -1.594881820256E-01 -3.538802252254E-01
C9  8.824684653600E-02  6.910530929395E-02  2.550360648714E-01
C10 -8.824684653600E-02 -6.910530929395E-02 -2.550360648714E-01
C11  1.170209171059E-01  1.905428701898E-01  1.946240890148E-01
C12 -1.170209171059E-01 -1.905428701898E-01 -1.946240890148E-01
C13  5.979218697087E-02  9.870102177676E-02  9.738185516571E-02
C14 -5.979218697087E-02 -9.870102177676E-02 -9.738185516571E-02
C15  8.841691559148E-02  2.196141135799E-01  3.586695790147E-02
C16 -8.841691559148E-02 -2.196141135799E-01 -3.586695790147E-02
C17 -3.075140701388E-02 -1.276484226630E-01  6.043188044777E-02
C18  3.075140701388E-02  1.276484226630E-01 -6.043188044777E-02
C19 -5.869801792655E-02 -2.491233926454E-01  1.228241822472E-01
C20  5.869801792655E-02  2.491233926454E-01 -1.228241822472E-01
C21 -9.326417165085E-04 -1.574744243330E-01  2.181686418018E-01
C22  9.326417165085E-04  1.574744243330E-01 -2.181686418018E-01
H23  1.687565996790E-01  1.037597058086E-01  4.872678440472E-01
H24 -1.687565996790E-01 -1.037597058086E-01 -4.872678440472E-01
H25 -9.572229866496E-02 -4.504527258126E-01  2.536322828268E-01
H26  9.572229866496E-02  4.504527258126E-01 -2.536322828268E-01
H27  1.322412685906E-02 -2.879881284822E-01  4.228581954286E-01
H28 -1.322412685906E-02  2.879881284822E-01 -4.228581954286E-01
H29  2.097678753981E-01  3.317184233387E-01  3.804870869499E-01
H30 -2.097678753981E-01 -3.317184233387E-01 -3.804870869499E-01
H31  1.856992307895E-01  3.601873693761E-01  2.224310318794E-01
H32 -1.856992307895E-01 -3.601873693761E-01 -2.224310318794E-01
H33  1.567828514225E-01  3.893072842889E-01  6.353767352169E-02
H34 -1.567828514225E-01 -3.893072842889E-01 -6.353767352169E-02
H35 -1.266321394652E-01 -4.189750764861E-01  9.510909264756E-02
H36  1.266321394652E-01  4.189750764861E-01 -9.510909264756E-02
C37 -4.523082260854E-01 -4.327893214781E-01  4.029632814807E-01
C38  4.523082260854E-01  4.327893214781E-01 -4.029632814807E-01
C39  4.888422503731E-01 -3.148898529391E-01  3.309023458219E-01
C40 -4.888422503731E-01  3.148898529391E-01 -3.309023458219E-01
C41 -4.943401665978E-01 -4.162476726131E-01  2.431827121207E-01
C42  4.943401665978E-01  4.162476726131E-01 -2.431827121207E-01
C43  4.508659007334E-01 -2.978294651077E-01  1.695662109465E-01
C44 -4.508659007334E-01  2.978294651077E-01 -1.695662109465E-01
C45  4.734434487041E-01 -3.960302111709E-01  8.431706068509E-02
C46 -4.734434487041E-01  3.960302111709E-01 -8.431706068509E-02
C47  4.213768324297E-01 -2.759772140995E-01  1.028242895728E-02
C48 -4.213768324297E-01  2.759772140995E-01 -1.028242895728E-02
C49 -4.462461973806E-01  3.731200116438E-01  7.367836550797E-02
C50  4.462461973806E-01 -3.731200116438E-01 -7.367836550797E-02
C51 -3.931296049385E-01  2.536413027031E-01  1.488925975646E-01
C52  3.931296049385E-01 -2.536413027031E-01 -1.488925975646E-01
C53 -4.146978939288E-01  3.529155601541E-01  2.325372676956E-01
C54  4.146978939288E-01 -3.529155601541E-01 -2.325372676956E-01
C55 -3.555583849221E-01  2.358199665342E-01  3.102636731691E-01
C56  3.555583849221E-01 -2.358199665342E-01 -3.102636731691E-01
C57 -3.733199731098E-01  3.395052282099E-01  3.926136466955E-01
C58  3.733199731098E-01 -3.395052282099E-01 -3.926136466955E-01
H59 -4.649482379192E-01 -3.515423792664E-01  4.692770040878E-01
H60  4.649482379192E-01  3.515423792664E-01 -4.692770040878E-01
H61  4.292951299865E-01 -1.412755891437E-01  3.390312217390E-01
H62 -4.292951299865E-01  1.412755891437E-01 -3.390312217390E-01
H63  3.910162756298E-01 -1.242925367507E-01  1.777983698240E-01
H64 -3.910162756298E-01  1.242925367507E-01 -1.777983698240E-01
H65  3.602299070775E-01 -1.030970757738E-01  1.830864188750E-02
H66 -3.602299070775E-01  1.030970757738E-01 -1.830864188750E-02
H67 -3.315543315709E-01  8.091218794071E-02  1.410820908893E-01
H68  3.315543315709E-01 -8.091218794071E-02 -1.410820908893E-01
H69 -2.940650483108E-01  6.324974972957E-02  3.022946904242E-01
H70  2.940650483108E-01 -6.324974972957E-02 -3.022946904242E-01
H71 -3.268129265963E-01  2.490683273297E-01  4.513023542263E-01
H72  3.268129265963E-01 -2.490683273297E-01 -4.513023542263E-01


#===END

data_OPT_STEP_28

_symmetry_space_group_name_H-M 'P 1'
_cell_length_a      7.29855055
_cell_length_b      5.91429813
_cell_length_c     15.63433645
_cell_angle_alpha  101.926640
_cell_angle_beta  112.902855
_cell_angle_gamma   85.572810

loop_
_atom_site_label
_atom_site_fract_x
_atom_site_fract_y
_atom_site_fract_z
C1  1.224336782040E-01  3.079511100486E-02  4.121305539878E-01
C2 -1.224336782040E-01 -3.079511100486E-02 -4.121305539878E-01
C3 -2.758165409202E-02 -2.835149268408E-01  2.813124914314E-01
C4  2.758165409202E-02  2.835149268408E-01 -2.813124914314E-01
C5  3.249907964376E-02 -1.924605227358E-01  3.751472262254E-01
C6 -3.249907964376E-02  1.924605227358E-01 -3.751472262254E-01
C7  1.474962292627E-01  1.572302471988E-01  3.540655836977E-01
C8 -1.474962292627E-01 -1.572302471988E-01 -3.540655836977E-01
C9  8.935464373545E-02  6.709906796032E-02  2.551223576427E-01
C10 -8.935464373545E-02 -6.709906796032E-02 -2.551223576427E-01
C11  1.188362511250E-01  1.886514351848E-01  1.949398510948E-01
C12 -1.188362511250E-01 -1.886514351848E-01 -1.949398510948E-01
C13  6.070035482643E-02  9.778505113533E-02  9.759801304665E-02
C14 -6.070035482643E-02 -9.778505113533E-02 -9.759801304665E-02
C15  8.871790498487E-02  2.198646317919E-01  3.621897885807E-02
C16 -8.871790498487E-02 -2.198646317919E-01 -3.621897885807E-02
C17 -3.055082132373E-02 -1.285088607532E-01  6.020260906208E-02
C18  3.055082132373E-02  1.285088607532E-01 -6.020260906208E-02
C19 -5.843266208850E-02 -2.507981315134E-01  1.224444865752E-01
C20  5.843266208850E-02  2.507981315134E-01 -1.224444865752E-01
C21 -5.137078647730E-04 -1.594862259754E-01  2.178966546184E-01
C22  5.137078647730E-04  1.594862259754E-01 -2.178966546184E-01
H23  1.688790348798E-01  1.012065465491E-01  4.872633042975E-01
H24 -1.688790348798E-01 -1.012065465491E-01 -4.872633042975E-01
H25 -9.703737736179E-02 -4.525416856981E-01  2.527428346874E-01
H26  9.703737736179E-02  4.525416856981E-01 -2.527428346874E-01
H27  1.103919227306E-02 -2.902014745453E-01  4.221306693661E-01
H28 -1.103919227306E-02  2.902014745453E-01 -4.221306693661E-01
H29  2.131004463359E-01  3.283698057766E-01  3.810321926609E-01
H30 -2.131004463359E-01 -3.283698057766E-01 -3.810321926609E-01
H31  1.891939390946E-01  3.573666657927E-01  2.230519680537E-01
H32 -1.891939390946E-01 -3.573666657927E-01 -2.230519680537E-01
H33  1.569436614669E-01  3.899864246670E-01  6.411320655922E-02
H34 -1.569436614669E-01 -3.899864246670E-01 -6.411320655922E-02
H35 -1.269686057827E-01 -4.206020787306E-01  9.444543302438E-02
H36  1.269686057827E-01  4.206020787306E-01 -9.444543302438E-02
C37 -4.521983027527E-01 -4.309714959053E-01  4.031303605450E-01
C38  4.521983027527E-01  4.309714959053E-01 -4.031303605450E-01
C39  4.889213996340E-01 -3.133416663653E-01  3.309526407723E-01
C40 -4.889213996340E-01  3.133416663653E-01 -3.309526407723E-01
C41 -4.939826327417E-01 -4.146516214055E-01  2.433106488452E-01
C42  4.939826327417E-01  4.146516214055E-01 -2.433106488452E-01
C43  4.511011111823E-01 -2.970288204204E-01  1.694779055276E-01
C44 -4.511011111823E-01  2.970288204204E-01 -1.694779055276E-01
C45  4.736353120523E-01 -3.955816542998E-01  8.427279839728E-02
C46 -4.736353120523E-01  3.955816542998E-01 -8.427279839728E-02
C47  4.218061685960E-01 -2.761170213250E-01  1.010240040472E-02
C48 -4.218061685960E-01  2.761170213250E-01 -1.010240040472E-02
C49 -4.466647182196E-01  3.737035639130E-01  7.379076335127E-02
C50  4.466647182196E-01 -3.737035639130E-01 -7.379076335127E-02
C51 -3.935300040626E-01  2.548640201951E-01  1.491755924970E-01
C52  3.935300040626E-01 -2.548640201951E-01 -1.491755924970E-01
C53 -4.146306298430E-01  3.547509979497E-01  2.328260162426E-01
C54  4.146306298430E-01 -3.547509979497E-01 -2.328260162426E-01
C55 -3.556113314943E-01  2.380237365203E-01  3.106427317632E-01
C56  3.556113314943E-01 -2.380237365203E-01 -3.106427317632E-01
C57 -3.731118524499E-01  3.418846611823E-01  3.929964570363E-01
C58  3.731118524499E-01 -3.418846611823E-01 -3.929964570363E-01
H59 -4.651777201416E-01 -3.502871819286E-01  4.693390699772E-01
H60  4.651777201416E-01  3.502871819286E-01 -4.693390699772E-01
H61  4.289835237641E-01 -1.401833562762E-01  3.388792962749E-01
H62 -4.289835237641E-01  1.401833562762E-01 -3.388792962749E-01
H63  3.908971217211E-01 -1.239045109337E-01  1.774460781957E-01
H64 -3.908971217211E-01  1.239045109337E-01 -1.774460781957E-01
H65  3.606661793182E-01 -1.034682286252E-01  1.791733564443E-02
H66 -3.606661793182E-01  1.034682286252E-01 -1.791733564443E-02
H67 -3.326437166978E-01  8.200800891860E-02  1.414032821648E-01
H68  3.326437166978E-01 -8.200800891860E-02 -1.414032821648E-01
H69 -2.949131450320E-01  6.528102750507E-02  3.026534628677E-01
H70  2.949131450320E-01 -6.528102750507E-02 -3.026534628677E-01
H71 -3.266636304868E-01  2.514639951318E-01  4.516742802076E-01
H72  3.266636304868E-01 -2.514639951318E-01 -4.516742802076E-01


#===END

data_OPT_STEP_29

_symmetry_space_group_name_H-M 'P 1'
_cell_length_a      7.29956581
_cell_length_b      5.91194594
_cell_length_c     15.63267356
_cell_angle_alpha  101.935531
_cell_angle_beta  112.824813
_cell_angle_gamma   85.448770

loop_
_atom_site_label
_atom_site_fract_x
_atom_site_fract_y
_atom_site_fract_z
C1  1.220706760499E-01  3.293538452385E-02  4.122202241231E-01
C2 -1.220706760499E-01 -3.293538452385E-02 -4.122202241231E-01
C3 -2.731869276573E-02 -2.816362495246E-01  2.817606217398E-01
C4  2.731869276573E-02  2.816362495246E-01 -2.817606217398E-01
C5  3.318976132855E-02 -1.905860248776E-01  3.755370582101E-01
C6 -3.318976132855E-02  1.905860248776E-01 -3.755370582101E-01
C7  1.466353526493E-01  1.590975543960E-01  3.539505742214E-01
C8 -1.466353526493E-01 -1.590975543960E-01 -3.539505742214E-01
C9  8.858141884853E-02  6.868692273262E-02  2.550803958740E-01
C10 -8.858141884853E-02 -6.868692273262E-02 -2.550803958740E-01
C11  1.175069429183E-01  1.901168518719E-01  1.947032773720E-01
C12 -1.175069429183E-01 -1.901168518719E-01 -1.947032773720E-01
C13  5.991693996893E-02  9.858842642488E-02  9.744113094140E-02
C14 -5.991693996893E-02 -9.858842642488E-02 -9.744113094140E-02
C15  8.840653172372E-02  2.197495648402E-01  3.593427509223E-02
C16 -8.840653172372E-02 -2.197495648402E-01 -3.593427509223E-02
C17 -3.079670550600E-02 -1.277730481717E-01  6.038259609178E-02
C18  3.079670550600E-02  1.277730481717E-01 -6.038259609178E-02
C19 -5.868290279092E-02 -2.494696998941E-01  1.227656189200E-01
C20  5.868290279092E-02  2.494696998941E-01 -1.227656189200E-01
C21 -8.804190159923E-04 -1.578501395809E-01  2.181321478133E-01
C22  8.804190159924E-04  1.578501395809E-01 -2.181321478133E-01
H23  1.686037931708E-01  1.034939572765E-01  4.872935091770E-01
H24 -1.686037931708E-01 -1.034939572765E-01 -4.872935091770E-01
H25 -9.626519571479E-02 -4.507565735131E-01  2.534506648556E-01
H26  9.626519571479E-02  4.507565735131E-01 -2.534506648556E-01
H27  1.248821680325E-02 -2.883093551570E-01  4.227196313809E-01
H28 -1.248821680325E-02  2.883093551570E-01 -4.227196313809E-01
H29  2.108878976239E-01  3.308815038117E-01  3.806866854639E-01
H30 -2.108878976239E-01 -3.308815038117E-01 -3.806866854639E-01
H31  1.868247830984E-01  3.593623598394E-01  2.225742937507E-01
H32 -1.868247830984E-01 -3.593623598394E-01 -2.225742937507E-01
H33  1.566816407184E-01  3.896031015613E-01  6.363868467251E-02
H34 -1.566816407184E-01 -3.896031015613E-01 -6.363868467251E-02
H35 -1.266824624412E-01 -4.193835917465E-01  9.499942837020E-02
H36  1.266824624412E-01  4.193835917465E-01 -9.499942837020E-02
C37 -4.521948186263E-01 -4.323188157000E-01  4.030542743821E-01
C38  4.521948186263E-01  4.323188157000E-01 -4.030542743821E-01
C39  4.890376207419E-01 -3.143805087754E-01  3.309839235137E-01
C40 -4.890376207419E-01  3.143805087754E-01 -3.309839235137E-01
C41 -4.941788609894E-01 -4.157847344048E-01  2.432484860364E-01
C42  4.941788609894E-01  4.157847344048E-01 -2.432484860364E-01
C43  4.507372119940E-01 -2.977265276997E-01  1.695377071571E-01
C44 -4.507372119940E-01  2.977265276997E-01 -1.695377071571E-01
C45  4.734196075742E-01 -3.959470190412E-01  8.430510463324E-02
C46 -4.734196075742E-01  3.959470190412E-01 -8.430510463324E-02
C47  4.215227804491E-01 -2.759649743479E-01  1.026286064526E-02
C48 -4.215227804491E-01  2.759649743479E-01 -1.026286064526E-02
C49 -4.463977727355E-01  3.732365574867E-01  7.368986231277E-02
C50  4.463977727355E-01 -3.732365574867E-01 -7.368986231277E-02
C51 -3.932684863077E-01  2.539058993254E-01  1.489499185851E-01
C52  3.932684863077E-01 -2.539058993254E-01 -1.489499185851E-01
C53 -4.146210347429E-01  3.534079533710E-01  2.326179625481E-01
C54  4.146210347429E-01 -3.534079533710E-01 -2.326179625481E-01
C55 -3.556288234161E-01  2.363050160662E-01  3.103460283406E-01
C56  3.556288234161E-01 -2.363050160662E-01 -3.103460283406E-01
C57 -3.733388353871E-01  3.400044305508E-01  3.927098681374E-01
C58  3.733388353871E-01 -3.400044305508E-01 -3.927098681374E-01
H59 -4.649778580997E-01 -3.512787725638E-01  4.693366965211E-01
H60  4.649778580997E-01  3.512787725638E-01 -4.693366965211E-01
H61  4.293914276453E-01 -1.408634919966E-01  3.390736453063E-01
H62 -4.293914276453E-01  1.408634919966E-01 -3.390736453063E-01
H63  3.905154388689E-01 -1.244263966694E-01  1.776650420341E-01
H64 -3.905154388689E-01  1.244263966694E-01 -1.776650420341E-01
H65  3.603778156143E-01 -1.031242040826E-01  1.825195940409E-02
H66 -3.603778156143E-01  1.031242040826E-01 -1.825195940409E-02
H67 -3.319146726134E-01  8.109462429975E-02  1.411196646370E-01
H68  3.319146726134E-01 -8.109462429975E-02 -1.411196646370E-01
H69 -2.945814503508E-01  6.352451687669E-02  3.023074934899E-01
H70  2.945814503508E-01 -6.352451687669E-02 -3.023074934899E-01
H71 -3.269460700319E-01  2.494386937803E-01  4.513638262949E-01
H72  3.269460700319E-01 -2.494386937803E-01 -4.513638262949E-01


#===END

data_OPT_STEP_30

_symmetry_space_group_name_H-M 'P 1'
_cell_length_a      7.30006971
_cell_length_b      5.91237707
_cell_length_c     15.63035802
_cell_angle_alpha  101.928656
_cell_angle_beta  112.856875
_cell_angle_gamma   85.483501

loop_
_atom_site_label
_atom_site_fract_x
_atom_site_fract_y
_atom_site_fract_z
C1  1.221199849908E-01  3.215940718232E-02  4.122357967467E-01
C2 -1.221199849908E-01 -3.215940718232E-02 -4.122357967467E-01
C3 -2.775125503183E-02 -2.820896245081E-01  2.816251498865E-01
C4  2.775125503183E-02  2.820896245081E-01 -2.816251498865E-01
C5  3.275632496048E-02 -1.911714927560E-01  3.754449878389E-01
C6 -3.275632496048E-02  1.911714927560E-01 -3.754449878389E-01
C7  1.471882171512E-01  1.581954573486E-01  3.540458025764E-01
C8 -1.471882171512E-01 -1.581954573486E-01 -3.540458025764E-01
C9  8.851768371619E-02  6.835960943331E-02  2.551128170491E-01
C10 -8.851768371619E-02 -6.835960943331E-02 -2.551128170491E-01
C11  1.173322675692E-01  1.900415879016E-01  1.947672760174E-01
C12 -1.173322675692E-01 -1.900415879016E-01 -1.947672760174E-01
C13  5.973540213615E-02  9.859715731275E-02  9.747677025399E-02
C14 -5.973540213615E-02 -9.859715731275E-02 -9.747677025399E-02
C15  8.847873414413E-02  2.197618713689E-01  3.601757129367E-02
C16 -8.847873414413E-02 -2.197618713689E-01 -3.601757129367E-02
C17 -3.090739969964E-02 -1.278600045319E-01  6.033010600859E-02
C18  3.090739969964E-02  1.278600045319E-01 -6.033010600859E-02
C19 -5.898778649915E-02 -2.496594934523E-01  1.226570825058E-01
C20  5.898778649915E-02  2.496594934523E-01 -1.226570825058E-01
C21 -1.275487745216E-03 -1.580542304012E-01  2.180497847983E-01
C22  1.275487745216E-03  1.580542304012E-01 -2.180497847983E-01
H23  1.691528719510E-01  1.023293938468E-01  4.873643690941E-01
H24 -1.691528719510E-01 -1.023293938468E-01 -4.873643690941E-01
H25 -9.677984229046E-02 -4.512406911184E-01  2.532235873074E-01
H26  9.677984229046E-02  4.512406911184E-01 -2.532235873074E-01
H27  1.169590883360E-02 -2.889275108185E-01  4.225413110308E-01
H28 -1.169590883360E-02  2.889275108185E-01 -4.225413110308E-01
H29  2.114050721610E-01  3.302186944050E-01  3.809310236872E-01
H30 -2.114050721610E-01 -3.302186944050E-01 -3.809310236872E-01
H31  1.867440405665E-01  3.592912928150E-01  2.227001767238E-01
H32 -1.867440405665E-01 -3.592912928150E-01 -2.227001767238E-01
H33  1.572163063054E-01  3.893687805245E-01  6.380172592404E-02
H34 -1.572163063054E-01 -3.893687805245E-01 -6.380172592404E-02
H35 -1.268374351762E-01 -4.197632254731E-01  9.483982098972E-02
H36  1.268374351762E-01  4.197632254731E-01 -9.483982098972E-02
C37 -4.522128008734E-01 -4.322080097749E-01  4.031063668207E-01
C38  4.522128008734E-01  4.322080097749E-01 -4.031063668207E-01
C39  4.891840704232E-01 -3.142053315700E-01  3.310372793394E-01
C40 -4.891840704232E-01  3.142053315700E-01 -3.310372793394E-01
C41 -4.941588731415E-01 -4.156686852395E-01  2.432800883947E-01
C42  4.941588731415E-01  4.156686852395E-01 -2.432800883947E-01
C43  4.507687861400E-01 -2.976852918215E-01  1.695464462809E-01
C44 -4.507687861400E-01  2.976852918215E-01 -1.695464462809E-01
C45  4.733469221947E-01 -3.959714348102E-01  8.428822945468E-02
C46 -4.733469221947E-01  3.959714348102E-01 -8.428822945468E-02
C47  4.215940610192E-01 -2.759724903774E-01  1.024420870405E-02
C48 -4.215940610192E-01  2.759724903774E-01 -1.024420870405E-02
C49 -4.465052591587E-01  3.732528794569E-01  7.369580212730E-02
C50  4.465052591587E-01 -3.732528794569E-01 -7.369580212730E-02
C51 -3.934382150413E-01  2.539376819568E-01  1.489823182571E-01
C52  3.934382150413E-01 -2.539376819568E-01 -1.489823182571E-01
C53 -4.147288203737E-01  3.535125133878E-01  2.326528336742E-01
C54  4.147288203737E-01 -3.535125133878E-01 -2.326528336742E-01
C55 -3.557153257998E-01  2.364367545531E-01  3.104232956788E-01
C56  3.557153257998E-01 -2.364367545531E-01 -3.104232956788E-01
C57 -3.735299277123E-01  3.400863810632E-01  3.927752891779E-01
C58  3.735299277123E-01 -3.400863810632E-01 -3.927752891779E-01
H59 -4.651181009165E-01 -3.512809769798E-01  4.693557847293E-01
H60  4.651181009165E-01  3.512809769798E-01 -4.693557847293E-01
H61  4.296451715661E-01 -1.407099424084E-01  3.391171692305E-01
H62 -4.296451715661E-01  1.407099424084E-01 -3.391171692305E-01
H63  3.904753367250E-01 -1.244963635365E-01  1.776316800700E-01
H64 -3.904753367250E-01  1.244963635365E-01 -1.776316800700E-01
H65  3.605767141131E-01 -1.031321109884E-01  1.822662219966E-02
H66 -3.605767141131E-01  1.031321109884E-01 -1.822662219966E-02
H67 -3.320722028008E-01  8.119951190307E-02  1.411791204212E-01
H68  3.320722028008E-01 -8.119951190307E-02 -1.411791204212E-01
H69 -2.948167028802E-01  6.363504276161E-02  3.023783633721E-01
H70  2.948167028802E-01 -6.363504276161E-02 -3.023783633721E-01
H71 -3.272889041591E-01  2.494281489009E-01  4.514245970360E-01
H72  3.272889041591E-01 -2.494281489009E-01 -4.514245970360E-01


#===END

data_OPT_STEP_31

_symmetry_space_group_name_H-M 'P 1'
_cell_length_a      7.30332748
_cell_length_b      5.91173626
_cell_length_c     15.63054013
_cell_angle_alpha  101.922958
_cell_angle_beta  112.914863
_cell_angle_gamma   85.503501

loop_
_atom_site_label
_atom_site_fract_x
_atom_site_fract_y
_atom_site_fract_z
C1  1.217143451559E-01  3.176939496896E-02  4.122365644663E-01
C2 -1.217143451559E-01 -3.176939496896E-02 -4.122365644663E-01
C3 -2.810195189313E-02 -2.824831086433E-01  2.814658286028E-01
C4  2.810195189313E-02  2.824831086433E-01 -2.814658286028E-01
C5  3.235466622644E-02 -1.916588917760E-01  3.753320541465E-01
C6 -3.235466622644E-02  1.916588917760E-01 -3.753320541465E-01
C7  1.470262709175E-01  1.578238915337E-01  3.541161611758E-01
C8 -1.470262709175E-01 -1.578238915337E-01 -3.541161611758E-01
C9  8.862940052902E-02  6.791673569093E-02  2.551516538694E-01
C10 -8.862940052902E-02 -6.791673569093E-02 -2.551516538694E-01
C11  1.175741624236E-01  1.896831892886E-01  1.948678797197E-01
C12 -1.175741624236E-01 -1.896831892886E-01 -1.948678797197E-01
C13  5.984013198542E-02  9.843288849787E-02  9.753097407447E-02
C14 -5.984013198542E-02 -9.843288849787E-02 -9.753097407447E-02
C15  8.846940397727E-02  2.198487607487E-01  3.611244712386E-02
C16 -8.846940397727E-02 -2.198487607487E-01 -3.611244712386E-02
C17 -3.092563378504E-02 -1.280128874288E-01  6.027452538647E-02
C18  3.092563378504E-02  1.280128874288E-01 -6.027452538647E-02
C19 -5.911557694672E-02 -2.499055257533E-01  1.225386847066E-01
C20  5.911557694672E-02  2.499055257533E-01 -1.225386847066E-01
C21 -1.269818921624E-03 -1.585018487386E-01  2.179786177335E-01
C22  1.269818921624E-03  1.585018487386E-01 -2.179786177335E-01
H23  1.687435137340E-01  1.018869902160E-01  4.873997667239E-01
H24 -1.687435137340E-01 -1.018869902160E-01 -4.873997667239E-01
H25 -9.729156871458E-02 -4.515900155494E-01  2.529715506933E-01
H26  9.729156871458E-02  4.515900155494E-01 -2.529715506933E-01
H27  1.126290966658E-02 -2.896309397080E-01  4.223593892472E-01
H28 -1.126290966658E-02  2.896309397080E-01 -4.223593892472E-01
H29  2.111233171507E-01  3.300607441932E-01  3.811010604662E-01
H30 -2.111233171507E-01 -3.300607441932E-01 -3.811010604662E-01
H31  1.870350096256E-01  3.589733906095E-01  2.228869349264E-01
H32 -1.870350096256E-01 -3.589733906095E-01 -2.228869349264E-01
H33  1.570327318409E-01  3.896344387482E-01  6.395294991348E-02
H34 -1.570327318409E-01 -3.896344387482E-01 -6.395294991348E-02
H35 -1.272815856310E-01 -4.198699899378E-01  9.462544109128E-02
H36  1.272815856310E-01  4.198699899378E-01 -9.462544109128E-02
C37 -4.523944971838E-01 -4.324093254839E-01  4.030776206308E-01
C38  4.523944971838E-01  4.324093254839E-01 -4.030776206308E-01
C39  4.889894845663E-01 -3.144494066957E-01  3.309795471761E-01
C40 -4.889894845663E-01  3.144494066957E-01 -3.309795471761E-01
C41 -4.941987464580E-01 -4.157821190724E-01  2.432684479851E-01
C42  4.941987464580E-01  4.157821190724E-01 -2.432684479851E-01
C43  4.509359456895E-01 -2.976621947924E-01  1.695524753550E-01
C44 -4.509359456895E-01  2.976621947924E-01 -1.695524753550E-01
C45  4.734162456642E-01 -3.959650563266E-01  8.428827065952E-02
C46 -4.734162456642E-01  3.959650563266E-01 -8.428827065952E-02
C47  4.216266540943E-01 -2.759765045930E-01  1.021694230105E-02
C48 -4.216266540943E-01  2.759765045930E-01 -1.021694230105E-02
C49 -4.464748160876E-01  3.732488089319E-01  7.371990696202E-02
C50  4.464748160876E-01 -3.732488089319E-01 -7.371990696202E-02
C51 -3.934375657104E-01  2.538998104426E-01  1.490251643859E-01
C52  3.934375657104E-01 -2.538998104426E-01 -1.490251643859E-01
C53 -4.148068445893E-01  3.534064157708E-01  2.326731440180E-01
C54  4.148068445893E-01 -3.534064157708E-01 -2.326731440180E-01
C55 -3.558832576805E-01  2.362710242944E-01  3.104534760606E-01
C56  3.558832576805E-01 -2.362710242944E-01 -3.104534760606E-01
C57 -3.737674994322E-01  3.398872507912E-01  3.927862698425E-01
C58  3.737674994322E-01 -3.398872507912E-01 -3.927862698425E-01
H59 -4.651589893667E-01 -3.513981077484E-01  4.693385134663E-01
H60  4.651589893667E-01  3.513981077484E-01 -4.693385134663E-01
H61  4.293915846961E-01 -1.410243363800E-01  3.390194684263E-01
H62 -4.293915846961E-01  1.410243363800E-01 -3.390194684263E-01
H63  3.907866287836E-01 -1.244354864681E-01  1.776364102318E-01
H64 -3.907866287836E-01  1.244354864681E-01 -1.776364102318E-01
H65  3.605893831799E-01 -1.031901749602E-01  1.816533750951E-02
H66 -3.605893831799E-01  1.031901749602E-01 -1.816533750951E-02
H67 -3.320727440178E-01  8.119253543135E-02  1.412561155612E-01
H68  3.320727440178E-01 -8.119253543135E-02 -1.412561155612E-01
H69 -2.949044903699E-01  6.354995877286E-02  3.024566420179E-01
H70  2.949044903699E-01 -6.354995877286E-02 -3.024566420179E-01
H71 -3.275821491119E-01  2.492397334441E-01  4.514625431535E-01
H72  3.275821491119E-01 -2.492397334441E-01 -4.514625431535E-01


#===END

data_OPT_STEP_32

_symmetry_space_group_name_H-M 'P 1'
_cell_length_a      7.30831727
_cell_length_b      5.91117421
_cell_length_c     15.63114493
_cell_angle_alpha  101.938287
_cell_angle_beta  112.986871
_cell_angle_gamma   85.462929

loop_
_atom_site_label
_atom_site_fract_x
_atom_site_fract_y
_atom_site_fract_z
C1  1.214107670149E-01  3.170261630706E-02  4.122732266982E-01
C2 -1.214107670149E-01 -3.170261630706E-02 -4.122732266982E-01
C3 -2.841785497001E-02 -2.824477430511E-01  2.813563625661E-01
C4  2.841785497001E-02  2.824477430511E-01 -2.813563625661E-01
C5  3.212799070014E-02 -1.917624321396E-01  3.752754169182E-01
C6 -3.212799070014E-02  1.917624321396E-01 -3.752754169182E-01
C7  1.467840269537E-01  1.577520411098E-01  3.541955174876E-01
C8 -1.467840269537E-01 -1.577520411098E-01 -3.541955174876E-01
C9  8.853526720421E-02  6.781448308208E-02  2.551921464741E-01
C10 -8.853526720421E-02 -6.781448308208E-02 -2.551921464741E-01
C11  1.175032755754E-01  1.896154400810E-01  1.949537956433E-01
C12 -1.175032755754E-01 -1.896154400810E-01 -1.949537956433E-01
C13  5.975843465261E-02  9.844218230937E-02  9.757046068284E-02
C14 -5.975843465261E-02 -9.844218230937E-02 -9.757046068284E-02
C15  8.857814383132E-02  2.197488371347E-01  3.620868564478E-02
C16 -8.857814383132E-02 -2.197488371347E-01 -3.620868564478E-02
C17 -3.110720340943E-02 -1.279301991328E-01  6.021916343417E-02
C18  3.110720340943E-02  1.279301991328E-01 -6.021916343417E-02
C19 -5.929677424548E-02 -2.498645269834E-01  1.224376090630E-01
C20  5.929677424548E-02  2.498645269834E-01 -1.224376090630E-01
C21 -1.477274615746E-03 -1.585088113833E-01  2.179204259232E-01
C22  1.477274615746E-03  1.585088113833E-01 -2.179204259232E-01
H23  1.682513801281E-01  1.019358183707E-01  4.874627189924E-01
H24 -1.682513801281E-01 -1.019358183707E-01 -4.874627189924E-01
H25 -9.767266072395E-02 -4.514934159218E-01  2.527898819250E-01
H26  9.767266072395E-02  4.514934159218E-01 -2.527898819250E-01
H27  1.092785736204E-02 -2.897307604337E-01  4.222535123402E-01
H28 -1.092785736204E-02  2.897307604337E-01 -4.222535123402E-01
H29  2.108032469513E-01  3.300465336715E-01  3.812569869403E-01
H30 -2.108032469513E-01 -3.300465336715E-01 -3.812569869403E-01
H31  1.869359003718E-01  3.589177781981E-01  2.230482210274E-01
H32 -1.869359003718E-01 -3.589177781981E-01 -2.230482210274E-01
H33  1.571576050966E-01  3.895070584989E-01  6.411497981917E-02
H34 -1.571576050966E-01 -3.895070584989E-01 -6.411497981917E-02
H35 -1.274179467582E-01 -4.198406886654E-01  9.446022580298E-02
H36  1.274179467582E-01  4.198406886654E-01 -9.446022580298E-02
C37 -4.525935575056E-01 -4.326207222132E-01  4.030578433656E-01
C38  4.525935575056E-01  4.326207222132E-01 -4.030578433656E-01
C39  4.889539877979E-01 -3.145467092265E-01  3.309686704428E-01
C40 -4.889539877979E-01  3.145467092265E-01 -3.309686704428E-01
C41 -4.942799927801E-01 -4.159205964394E-01  2.432539877646E-01
C42  4.942799927801E-01  4.159205964394E-01 -2.432539877646E-01
C43  4.507712462563E-01 -2.977841222165E-01  1.695134374226E-01
C44 -4.507712462563E-01  2.977841222165E-01 -1.695134374226E-01
C45  4.733615311236E-01 -3.960081011679E-01  8.427547439149E-02
C46 -4.733615311236E-01  3.960081011679E-01 -8.427547439149E-02
C47  4.216775883346E-01 -2.758812606989E-01  1.021556289329E-02
C48 -4.216775883346E-01  2.758812606989E-01 -1.021556289329E-02
C49 -4.464768550315E-01  3.731567746806E-01  7.372522204772E-02
C50  4.464768550315E-01 -3.731567746806E-01 -7.372522204772E-02
C51 -3.934048367223E-01  2.537602227852E-01  1.490507112503E-01
C52  3.934048367223E-01 -2.537602227852E-01 -1.490507112503E-01
C53 -4.148500612992E-01  3.532200502465E-01  2.326840912117E-01
C54  4.148500612992E-01 -3.532200502465E-01 -2.326840912117E-01
C55 -3.561133009245E-01  2.359476454370E-01  3.104506138335E-01
C56  3.561133009245E-01 -2.359476454370E-01 -3.104506138335E-01
C57 -3.740234099007E-01  3.395705198356E-01  3.927787667015E-01
C58  3.740234099007E-01 -3.395705198356E-01 -3.927787667015E-01
H59 -4.653144377859E-01 -3.515273909122E-01  4.693261817722E-01
H60  4.653144377859E-01  3.515273909122E-01 -4.693261817722E-01
H61  4.295053957988E-01 -1.410066953079E-01  3.390207215171E-01
H62 -4.295053957988E-01  1.410066953079E-01 -3.390207215171E-01
H63  3.904381875015E-01 -1.246167813626E-01  1.775532895056E-01
H64 -3.904381875015E-01  1.246167813626E-01 -1.775532895056E-01
H65  3.606911251766E-01 -1.030273631807E-01  1.816430702326E-02
H66 -3.606911251766E-01  1.030273631807E-01 -1.816430702326E-02
H67 -3.319166088379E-01  8.107462209147E-02  1.413195870312E-01
H68  3.319166088379E-01 -8.107462209147E-02 -1.413195870312E-01
H69 -2.952852771388E-01  6.308620977098E-02  3.024434366194E-01
H70  2.952852771388E-01 -6.308620977098E-02 -3.024434366194E-01
H71 -3.279722243920E-01  2.488430745541E-01  4.514595337579E-01
H72  3.279722243920E-01 -2.488430745541E-01 -4.514595337579E-01


#===END

data_OPT_STEP_33

_symmetry_space_group_name_H-M 'P 1'
_cell_length_a      7.31185832
_cell_length_b      5.91341903
_cell_length_c     15.63311603
_cell_angle_alpha  101.939200
_cell_angle_beta  113.102014
_cell_angle_gamma   85.467185

loop_
_atom_site_label
_atom_site_fract_x
_atom_site_fract_y
_atom_site_fract_z
C1  1.215749166560E-01  3.003315001784E-02  4.122689919515E-01
C2 -1.215749166560E-01 -3.003315001784E-02 -4.122689919515E-01
C3 -2.866714621951E-02 -2.833940467470E-01  2.809826872507E-01
C4  2.866714621951E-02  2.833940467470E-01 -2.809826872507E-01
C5  3.148471731415E-02 -1.928881457224E-01  3.749613111837E-01
C6 -3.148471731415E-02  1.928881457224E-01 -3.749613111837E-01
C7  1.467895373898E-01  1.566346435627E-01  3.543586878243E-01
C8 -1.467895373898E-01 -1.566346435627E-01 -3.543586878243E-01
C9  8.859367879564E-02  6.705279950343E-02  2.552563203533E-01
C10 -8.859367879564E-02 -6.705279950343E-02 -2.552563203533E-01
C11  1.179202214376E-01  1.888928009165E-01  1.951726374202E-01
C12 -1.179202214376E-01 -1.888928009165E-01 -1.951726374202E-01
C13  6.003574632231E-02  9.807142867982E-02  9.768832999292E-02
C14 -6.003574632231E-02 -9.807142867982E-02 -9.768832999292E-02
C15  8.892329609862E-02  2.195080394826E-01  3.644097267171E-02
C16 -8.892329609862E-02 -2.195080394826E-01 -3.644097267171E-02
C17 -3.114602589150E-02 -1.281121847971E-01  6.006642226007E-02
C18  3.114602589150E-02  1.281121847971E-01 -6.006642226007E-02
C19 -5.926298931040E-02 -2.503143283534E-01  1.221617955921E-01
C20  5.926298931040E-02  2.503143283534E-01 -1.221617955921E-01
C21 -1.469808806168E-03 -1.592295433766E-01  2.177227570902E-01
C22  1.469808806168E-03  1.592295433766E-01 -2.177227570902E-01
H23  1.681409306540E-01  1.002033422077E-01  4.875141970622E-01
H24 -1.681409306540E-01 -1.002033422077E-01 -4.875141970622E-01
H25 -9.818887503661E-02 -4.522386759499E-01  2.522108543046E-01
H26  9.818887503661E-02  4.522386759499E-01 -2.522108543046E-01
H27  9.368968014108E-03 -2.907348423468E-01  4.217167305703E-01
H28 -9.368968014109E-03  2.907348423468E-01 -4.217167305703E-01
H29  2.113360529953E-01  3.286609826312E-01  3.816394844256E-01
H30 -2.113360529953E-01 -3.286609826312E-01 -3.816394844256E-01
H31  1.873577590792E-01  3.582359549774E-01  2.234653475001E-01
H32 -1.873577590792E-01 -3.582359549774E-01 -2.234653475001E-01
H33  1.576637964165E-01  3.891455651682E-01  6.451759644630E-02
H34 -1.576637964165E-01 -3.891455651682E-01 -6.451759644630E-02
H35 -1.274726404970E-01 -4.202181305653E-01  9.401781146739E-02
H36  1.274726404970E-01  4.202181305653E-01 -9.401781146739E-02
C37 -4.522549360466E-01 -4.323418495602E-01  4.031160903574E-01
C38  4.522549360466E-01  4.323418495602E-01 -4.031160903574E-01
C39  4.890593655718E-01 -3.145799518108E-01  3.309455066575E-01
C40 -4.890593655718E-01  3.145799518108E-01 -3.309455066575E-01
C41 -4.943044965105E-01 -4.159697053151E-01  2.432287256666E-01
C42  4.943044965105E-01  4.159697053151E-01 -2.432287256666E-01
C43  4.508732999434E-01 -2.978530969334E-01  1.694519827400E-01
C44 -4.508732999434E-01  2.978530969334E-01 -1.694519827400E-01
C45  4.735423575256E-01 -3.959713401933E-01  8.427098598049E-02
C46 -4.735423575256E-01  3.959713401933E-01 -8.427098598049E-02
C47  4.217521160933E-01 -2.760171191750E-01  1.014406204687E-02
C48 -4.217521160933E-01  2.760171191750E-01 -1.014406204687E-02
C49 -4.465599814482E-01  3.731919462349E-01  7.375651627544E-02
C50  4.465599814482E-01 -3.731919462349E-01 -7.375651627544E-02
C51 -3.934235824675E-01  2.539492960715E-01  1.491479369954E-01
C52  3.934235824675E-01 -2.539492960715E-01 -1.491479369954E-01
C53 -4.148677986668E-01  3.533423136563E-01  2.327436436000E-01
C54  4.148677986668E-01 -3.533423136563E-01 -2.327436436000E-01
C55 -3.559941130944E-01  2.363067542118E-01  3.105908414224E-01
C56  3.559941130944E-01 -2.363067542118E-01 -3.105908414224E-01
C57 -3.735860891560E-01  3.400939204659E-01  3.929301261933E-01
C58  3.735860891560E-01 -3.400939204659E-01 -3.929301261933E-01
H59 -4.649647986601E-01 -3.512955658211E-01  4.694053688362E-01
H60  4.649647986601E-01  3.512955658211E-01 -4.694053688362E-01
H61  4.297314042158E-01 -1.410800247110E-01  3.389666374386E-01
H62 -4.297314042158E-01  1.410800247110E-01 -3.389666374386E-01
H63  3.909746177154E-01 -1.245474049790E-01  1.774990683888E-01
H64 -3.909746177154E-01  1.245474049790E-01 -1.774990683888E-01
H65  3.607904229555E-01 -1.032439870685E-01  1.802738473031E-02
H66 -3.607904229555E-01  1.032439870685E-01 -1.802738473031E-02
H67 -3.320519743894E-01  8.129743327755E-02  1.414775112127E-01
H68  3.320519743894E-01 -8.129743327755E-02 -1.414775112127E-01
H69 -2.951567535615E-01  6.355364532893E-02  3.026450216975E-01
H70  2.951567535615E-01 -6.355364532893E-02 -3.026450216975E-01
H71 -3.278730010685E-01  2.494083960041E-01  4.516151966433E-01
H72  3.278730010685E-01 -2.494083960041E-01 -4.516151966433E-01


#===END

data_OPT_STEP_34

_symmetry_space_group_name_H-M 'P 1'
_cell_length_a      7.31358904
_cell_length_b      5.91350598
_cell_length_c     15.63308966
_cell_angle_alpha  101.948155
_cell_angle_beta  113.133470
_cell_angle_gamma   85.437964

loop_
_atom_site_label
_atom_site_fract_x
_atom_site_fract_y
_atom_site_fract_z
C1  1.213318962603E-01  3.012348795969E-02  4.122864754493E-01
C2 -1.213318962603E-01 -3.012348795969E-02 -4.122864754493E-01
C3 -2.876395465264E-02 -2.833135731846E-01  2.809478207663E-01
C4  2.876395465264E-02  2.833135731846E-01 -2.809478207663E-01
C5  3.144243809097E-02 -1.929038067862E-01  3.749477549700E-01
C6 -3.144243809097E-02  1.929038067862E-01 -3.749477549700E-01
C7  1.468213155297E-01  1.565281706412E-01  3.544030000618E-01
C8 -1.468213155297E-01 -1.565281706412E-01 -3.544030000618E-01
C9  8.861051043981E-02  6.700198623255E-02  2.552823418881E-01
C10 -8.861051043981E-02 -6.700198623255E-02 -2.552823418881E-01
C11  1.178709946044E-01  1.888816898360E-01  1.952107514762E-01
C12 -1.178709946044E-01 -1.888816898360E-01 -1.952107514762E-01
C13  6.000420751457E-02  9.806769672895E-02  9.770627321678E-02
C14 -6.000420751457E-02 -9.806769672895E-02 -9.770627321678E-02
C15  8.881358168272E-02  2.195389691468E-01  3.646442767220E-02
C16 -8.881358168272E-02 -2.195389691468E-01 -3.646442767220E-02
C17 -3.106784052724E-02 -1.281527478521E-01  6.005929713978E-02
C18  3.106784052724E-02  1.281527478521E-01 -6.005929713978E-02
C19 -5.937421534205E-02 -2.501948812149E-01  1.221245959262E-01
C20  5.937421534205E-02  2.501948812149E-01 -1.221245959262E-01
C21 -1.531983760956E-03 -1.591900292146E-01  2.177058564148E-01
C22  1.531983760956E-03  1.591900292146E-01 -2.177058564148E-01
H23  1.679437403323E-01  1.002340639716E-01  4.875454414726E-01
H24 -1.679437403323E-01 -1.002340639716E-01 -4.875454414726E-01
H25 -9.828166954481E-02 -4.521300783633E-01  2.521499917026E-01
H26  9.828166954481E-02  4.521300783633E-01 -2.521499917026E-01
H27  9.326759783110E-03 -2.908108159891E-01  4.216731650194E-01
H28 -9.326759783111E-03  2.908108159891E-01 -4.216731650194E-01
H29  2.115262229929E-01  3.283773783450E-01  3.817050275065E-01
H30 -2.115262229929E-01 -3.283773783450E-01 -3.817050275065E-01
H31  1.873717057519E-01  3.581446655787E-01  2.235335956594E-01
H32 -1.873717057519E-01 -3.581446655787E-01 -2.235335956594E-01
H33  1.575578272739E-01  3.891406933504E-01  6.456691005682E-02
H34 -1.575578272739E-01 -3.891406933504E-01 -6.456691005682E-02
H35 -1.276258456972E-01 -4.200357472080E-01  9.395495560678E-02
H36  1.276258456972E-01  4.200357472080E-01 -9.395495560678E-02
C37 -4.522947586753E-01 -4.323208640880E-01  4.031298632296E-01
C38  4.522947586753E-01  4.323208640880E-01 -4.031298632296E-01
C39  4.891464132136E-01 -3.144595272152E-01  3.309696417391E-01
C40 -4.891464132136E-01  3.144595272152E-01 -3.309696417391E-01
C41 -4.943413486872E-01 -4.159539138415E-01  2.432297186011E-01
C42  4.943413486872E-01  4.159539138415E-01 -2.432297186011E-01
C43  4.507470748319E-01 -2.978801833539E-01  1.694251329795E-01
C44 -4.507470748319E-01  2.978801833539E-01 -1.694251329795E-01
C45  4.733861702363E-01 -3.960386379330E-01  8.423942631410E-02
C46 -4.733861702363E-01  3.960386379330E-01 -8.423942631410E-02
C47  4.216333992962E-01 -2.760549727164E-01  1.010848500270E-02
C48 -4.216333992962E-01  2.760549727164E-01 -1.010848500270E-02
C49 -4.465761028263E-01  3.731740952584E-01  7.376626067388E-02
C50  4.465761028263E-01 -3.731740952584E-01 -7.376626067388E-02
C51 -3.936479977505E-01  2.538192272932E-01  1.491279549486E-01
C52  3.936479977505E-01 -2.538192272932E-01 -1.491279549486E-01
C53 -4.150051737189E-01  3.532585196055E-01  2.327377999467E-01
C54  4.150051737189E-01 -3.532585196055E-01 -2.327377999467E-01
C55 -3.561299717810E-01  2.362021039878E-01  3.105955915432E-01
C56  3.561299717810E-01 -2.362021039878E-01 -3.105955915432E-01
C57 -3.739049735414E-01  3.398967206209E-01  3.929063065963E-01
C58  3.739049735414E-01 -3.398967206209E-01 -3.929063065963E-01
H59 -4.649828887724E-01 -3.512723764854E-01  4.694230061513E-01
H60  4.649828887724E-01  3.512723764854E-01 -4.694230061513E-01
H61  4.298837697457E-01 -1.408936384243E-01  3.389936789468E-01
H62 -4.298837697457E-01  1.408936384243E-01 -3.389936789468E-01
H63  3.907962725234E-01 -1.245701421791E-01  1.774517210830E-01
H64 -3.907962725234E-01  1.245701421791E-01 -1.774517210830E-01
H65  3.606036752045E-01 -1.032840764192E-01  1.797049677720E-02
H66 -3.606036752045E-01  1.032840764192E-01 -1.797049677720E-02
H67 -3.323016246307E-01  8.111840667730E-02  1.414616297934E-01
H68  3.323016246307E-01 -8.111840667730E-02 -1.414616297934E-01
H69 -2.950810002868E-01  6.354389631719E-02  3.026954487598E-01
H70  2.950810002868E-01 -6.354389631719E-02 -3.026954487598E-01
H71 -3.281807831054E-01  2.492281688942E-01  4.516060555913E-01
H72  3.281807831054E-01 -2.492281688942E-01 -4.516060555913E-01


#===END

data_OPT_STEP_35

_symmetry_space_group_name_H-M 'P 1'
_cell_length_a      7.31221996
_cell_length_b      5.91481143
_cell_length_c     15.63597193
_cell_angle_alpha  101.956945
_cell_angle_beta  113.185871
_cell_angle_gamma   85.435361

loop_
_atom_site_label
_atom_site_fract_x
_atom_site_fract_y
_atom_site_fract_z
C1  1.209893072863E-01  3.000935828916E-02  4.122040051026E-01
C2 -1.209893072863E-01 -3.000935828916E-02 -4.122040051026E-01
C3 -2.891796739022E-02 -2.836218025476E-01  2.808174042802E-01
C4  2.891796739022E-02  2.836218025476E-01 -2.808174042802E-01
C5  3.136960740660E-02 -1.932230491423E-01  3.748441754721E-01
C6 -3.136960740660E-02  1.932230491423E-01 -3.748441754721E-01
C7  1.468879084362E-01  1.560944471772E-01  3.543577327956E-01
C8 -1.468879084362E-01 -1.560944471772E-01 -3.543577327956E-01
C9  8.854854384560E-02  6.665564780682E-02  2.552416323961E-01
C10 -8.854854384560E-02 -6.665564780682E-02 -2.552416323961E-01
C11  1.177503062769E-01  1.886900873413E-01  1.952298137119E-01
C12 -1.177503062769E-01 -1.886900873413E-01 -1.952298137119E-01
C13  6.010162176765E-02  9.786456235580E-02  9.772228173006E-02
C14 -6.010162176765E-02 -9.786456235580E-02 -9.772228173006E-02
C15  8.903489883755E-02  2.194305588866E-01  3.657460922092E-02
C16 -8.903489883755E-02 -2.194305588866E-01 -3.657460922092E-02
C17 -3.122229209329E-02 -1.282422745587E-01  5.999891108439E-02
C18  3.122229209329E-02  1.282422745587E-01 -5.999891108439E-02
C19 -5.945438586398E-02 -2.504943175885E-01  1.220183277329E-01
C20  5.945438586398E-02  2.504943175885E-01 -1.220183277329E-01
C21 -1.585234446580E-03 -1.595543456885E-01  2.176250766450E-01
C22  1.585234446580E-03  1.595543456885E-01 -2.176250766450E-01
H23  1.680447157725E-01  9.975483534694E-02  4.874905925901E-01
H24 -1.680447157725E-01 -9.975483534694E-02 -4.874905925901E-01
H25 -9.818575988156E-02 -4.526352029588E-01  2.519932445625E-01
H26  9.818575988156E-02  4.526352029588E-01 -2.519932445625E-01
H27  9.827046249952E-03 -2.915012476698E-01  4.215727679766E-01
H28 -9.827046249952E-03  2.915012476698E-01 -4.215727679766E-01
H29  2.113238590617E-01  3.280264649097E-01  3.816191485695E-01
H30 -2.113238590617E-01 -3.280264649097E-01 -3.816191485695E-01
H31  1.874091961225E-01  3.578053307139E-01  2.236086971698E-01
H32 -1.874091961225E-01 -3.578053307139E-01 -2.236086971698E-01
H33  1.578291053080E-01  3.890173892258E-01  6.474563631147E-02
H34 -1.578291053080E-01 -3.890173892258E-01 -6.474563631147E-02
H35 -1.276404100352E-01 -4.203932721603E-01  9.379698851178E-02
H36  1.276404100352E-01  4.203932721603E-01 -9.379698851178E-02
C37 -4.528993319670E-01 -4.325273285629E-01  4.030074773251E-01
C38  4.528993319670E-01  4.325273285629E-01 -4.030074773251E-01
C39  4.888325539766E-01 -3.143870673179E-01  3.308713371207E-01
C40 -4.888325539766E-01  3.143870673179E-01 -3.308713371207E-01
C41 -4.944374317599E-01 -4.157949639862E-01  2.431973503151E-01
C42  4.944374317599E-01  4.157949639862E-01 -2.431973503151E-01
C43  4.508690001035E-01 -2.976676899595E-01  1.694062812390E-01
C44 -4.508690001035E-01  2.976676899595E-01 -1.694062812390E-01
C45  4.733762568337E-01 -3.959861451026E-01  8.421524136325E-02
C46 -4.733762568337E-01  3.959861451026E-01 -8.421524136325E-02
C47  4.219399214999E-01 -2.758684771815E-01  1.011749904424E-02
C48 -4.219399214999E-01  2.758684771815E-01 -1.011749904424E-02
C49 -4.466577065186E-01  3.732234292039E-01  7.378515907446E-02
C50  4.466577065186E-01 -3.732234292039E-01 -7.378515907446E-02
C51 -3.936682476460E-01  2.539422655827E-01  1.491659046054E-01
C52  3.936682476460E-01 -2.539422655827E-01 -1.491659046054E-01
C53 -4.150917628940E-01  3.534411384598E-01  2.327633316268E-01
C54  4.150917628940E-01 -3.534411384598E-01 -2.327633316268E-01
C55 -3.565024919296E-01  2.361963051813E-01  3.105673045731E-01
C56  3.565024919296E-01 -2.361963051813E-01 -3.105673045731E-01
C57 -3.743897104880E-01  3.397849010364E-01  3.928542646363E-01
C58  3.743897104880E-01 -3.397849010364E-01 -3.928542646363E-01
H59 -4.651715543622E-01 -3.513655379033E-01  4.693033381868E-01
H60  4.651715543622E-01  3.513655379033E-01 -4.693033381868E-01
H61  4.297078959843E-01 -1.407580858265E-01  3.388865636447E-01
H62 -4.297078959843E-01  1.407580858265E-01 -3.388865636447E-01
H63  3.907104078961E-01 -1.244819396613E-01  1.773655919247E-01
H64 -3.907104078961E-01  1.244819396613E-01 -1.773655919247E-01
H65  3.610917917449E-01 -1.030011517376E-01  1.797842794859E-02
H66 -3.610917917449E-01  1.030011517376E-01 -1.797842794859E-02
H67 -3.318696998078E-01  8.152411499023E-02  1.416045388802E-01
H68  3.318696998078E-01 -8.152411499023E-02 -1.416045388802E-01
H69 -2.958405002267E-01  6.333313613770E-02  3.026268140599E-01
H70  2.958405002267E-01 -6.333313613770E-02 -3.026268140599E-01
H71 -3.282061871080E-01  2.492705268897E-01  4.516180568800E-01
H72  3.282061871080E-01 -2.492705268897E-01 -4.516180568800E-01


#===END

data_OPT_STEP_36

_symmetry_space_group_name_H-M 'P 1'
_cell_length_a      7.31332706
_cell_length_b      5.91374890
_cell_length_c     15.63360938
_cell_angle_alpha  101.950735
_cell_angle_beta  113.141761
_cell_angle_gamma   85.437783

loop_
_atom_site_label
_atom_site_fract_x
_atom_site_fract_y
_atom_site_fract_z
C1  1.211683678251E-01  3.018889388922E-02  4.122587104572E-01
C2 -1.211683678251E-01 -3.018889388922E-02 -4.122587104572E-01
C3 -2.884184276132E-02 -2.833449681660E-01  2.809301521292E-01
C4  2.884184276132E-02  2.833449681660E-01 -2.809301521292E-01
C5  3.140227519193E-02 -1.929247522687E-01  3.749346924465E-01
C6 -3.140227519193E-02  1.929247522687E-01 -3.749346924465E-01
C7  1.468962508350E-01  1.563945535847E-01  3.543811562367E-01
C8 -1.468962508350E-01 -1.563945535847E-01 -3.543811562367E-01
C9  8.859185537982E-02  6.691932879977E-02  2.552681058789E-01
C10 -8.859185537982E-02 -6.691932879977E-02 -2.552681058789E-01
C11  1.177778597403E-01  1.888773064674E-01  1.952049550976E-01
C12 -1.177778597403E-01 -1.888773064674E-01 -1.952049550976E-01
C13  6.002470797188E-02  9.802314878644E-02  9.770619421806E-02
C14 -6.002470797188E-02 -9.802314878644E-02 -9.770619421806E-02
C15  8.888143974874E-02  2.195099423852E-01  3.648713045701E-02
C16 -8.888143974874E-02 -2.195099423852E-01 -3.648713045701E-02
C17 -3.114414283243E-02 -1.281585854415E-01  6.005033776959E-02
C18  3.114414283243E-02  1.281585854415E-01 -6.005033776959E-02
C19 -5.938842558519E-02 -2.502907440327E-01  1.221150764807E-01
C20  5.938842558519E-02  2.502907440327E-01 -1.221150764807E-01
C21 -1.534985622322E-03 -1.592888468557E-01  2.176989084989E-01
C22  1.534985622322E-03  1.592888468557E-01 -2.176989084989E-01
H23  1.679692998221E-01  1.001526875043E-01  4.875224937606E-01
H24 -1.679692998221E-01 -1.001526875043E-01 -4.875224937606E-01
H25 -9.823203559636E-02 -4.522635780205E-01  2.521376910157E-01
H26  9.823203559636E-02  4.522635780205E-01 -2.521376910157E-01
H27  9.537119689466E-03 -2.909797232941E-01  4.216710320100E-01
H28 -9.537119689466E-03  2.909797232941E-01 -4.216710320100E-01
H29  2.114403958285E-01  3.283068309809E-01  3.816577573435E-01
H30 -2.114403958285E-01 -3.283068309809E-01 -3.816577573435E-01
H31  1.873659692562E-01  3.580554666578E-01  2.235325591749E-01
H32 -1.873659692562E-01 -3.580554666578E-01 -2.235325591749E-01
H33  1.576151152926E-01  3.891260524625E-01  6.459662772766E-02
H34 -1.576151152926E-01 -3.891260524625E-01 -6.459662772766E-02
H35 -1.276257692554E-01 -4.201472293190E-01  9.394046220170E-02
H36  1.276257692554E-01  4.201472293190E-01 -9.394046220170E-02
C37 -4.525121436558E-01 -4.324496323844E-01  4.030918831648E-01
C38  4.525121436558E-01  4.324496323844E-01 -4.030918831648E-01
C39  4.890546029232E-01 -3.144378412698E-01  3.309457296329E-01
C40 -4.890546029232E-01  3.144378412698E-01 -3.309457296329E-01
C41 -4.943352381535E-01 -4.158877108321E-01  2.432306739980E-01
C42  4.943352381535E-01  4.158877108321E-01 -2.432306739980E-01
C43  4.507953345987E-01 -2.978052327225E-01  1.694296026459E-01
C44 -4.507953345987E-01  2.978052327225E-01 -1.694296026459E-01
C45  4.733528414339E-01 -3.960395474181E-01  8.422975436403E-02
C46 -4.733528414339E-01  3.960395474181E-01 -8.422975436403E-02
C47  4.217404450869E-01 -2.759717556030E-01  1.012018804461E-02
C48 -4.217404450869E-01  2.759717556030E-01 -1.012018804461E-02
C49 -4.466122809742E-01  3.731752521379E-01  7.376827004840E-02
C50  4.466122809742E-01 -3.731752521379E-01 -7.376827004840E-02
C51 -3.936545310021E-01  2.538343137561E-01  1.491332284638E-01
C52  3.936545310021E-01 -2.538343137561E-01 -1.491332284638E-01
C53 -4.149910553323E-01  3.533250821561E-01  2.327523027380E-01
C54  4.149910553323E-01 -3.533250821561E-01 -2.327523027380E-01
C55 -3.562123171429E-01  2.361741289690E-01  3.105879900222E-01
C56  3.562123171429E-01 -2.361741289690E-01 -3.105879900222E-01
C57 -3.740470509892E-01  3.398112928850E-01  3.928917339326E-01
C58  3.740470509892E-01 -3.398112928850E-01 -3.928917339326E-01
H59 -4.649759067900E-01 -3.513517221162E-01  4.693917673641E-01
H60  4.649759067900E-01  3.513517221162E-01 -4.693917673641E-01
H61  4.298514654020E-01 -1.408366375366E-01  3.389721582464E-01
H62 -4.298514654020E-01  1.408366375366E-01 -3.389721582464E-01
H63  3.907383355112E-01 -1.245509987171E-01  1.774337408119E-01
H64 -3.907383355112E-01  1.245509987171E-01 -1.774337408119E-01
H65  3.607244062982E-01 -1.031865795939E-01  1.798103967338E-02
H66 -3.607244062982E-01  1.031865795939E-01 -1.798103967338E-02
H67 -3.321474893655E-01  8.123002733733E-02  1.414948217896E-01
H68  3.321474893655E-01 -8.123002733733E-02 -1.414948217896E-01
H69 -2.953202370913E-01  6.342518662583E-02  3.026633383134E-01
H70  2.953202370913E-01 -6.342518662583E-02 -3.026633383134E-01
H71 -3.281070910341E-01  2.492029203811E-01  4.516184693908E-01
H72  3.281070910341E-01 -2.492029203811E-01 -4.516184693908E-01


#===END

data_OPT_STEP_37

_symmetry_space_group_name_H-M 'P 1'
_cell_length_a      7.31364586
_cell_length_b      5.91399957
_cell_length_c     15.63331549
_cell_angle_alpha  101.951492
_cell_angle_beta  113.155608
_cell_angle_gamma   85.432865

loop_
_atom_site_label
_atom_site_fract_x
_atom_site_fract_y
_atom_site_fract_z
C1  1.211530071009E-01  3.012088724134E-02  4.122624764175E-01
C2 -1.211530071009E-01 -3.012088724134E-02 -4.122624764175E-01
C3 -2.886427560797E-02 -2.833784794954E-01  2.809184103928E-01
C4  2.886427560797E-02  2.833784794954E-01 -2.809184103928E-01
C5  3.142967521624E-02 -1.930007611287E-01  3.749330395096E-01
C6 -3.142967521624E-02  1.930007611287E-01 -3.749330395096E-01
C7  1.468210390247E-01  1.563618195438E-01  3.543863064811E-01
C8 -1.468210390247E-01 -1.563618195438E-01 -3.543863064811E-01
C9  8.852923197432E-02  6.690145766072E-02  2.552674645567E-01
C10 -8.852923197432E-02 -6.690145766072E-02 -2.552674645567E-01
C11  1.177278492928E-01  1.888566601618E-01  1.952135193604E-01
C12 -1.177278492928E-01 -1.888566601618E-01 -1.952135193604E-01
C13  5.991442018046E-02  9.806359513549E-02  9.770714335759E-02
C14 -5.991442018046E-02 -9.806359513549E-02 -9.770714335759E-02
C15  8.878863323331E-02  2.195604100883E-01  3.649737895908E-02
C16 -8.878863323331E-02 -2.195604100883E-01 -3.649737895908E-02
C17 -3.115547410286E-02 -1.281620355335E-01  6.004517810152E-02
C18  3.115547410286E-02  1.281620355335E-01 -6.004517810152E-02
C19 -5.950076004522E-02 -2.502489232054E-01  1.220912661182E-01
C20  5.950076004522E-02  2.502489232054E-01 -1.220912661182E-01
C21 -1.668794068676E-03 -1.592490132038E-01  2.176814421072E-01
C22  1.668794068676E-03  1.592490132038E-01 -2.176814421072E-01
H23  1.679223553835E-01  1.001109627416E-01  4.875281170467E-01
H24 -1.679223553835E-01 -1.001109627416E-01 -4.875281170467E-01
H25 -9.829935077568E-02 -4.522599511595E-01  2.521161611955E-01
H26  9.829935077568E-02  4.522599511595E-01 -2.521161611955E-01
H27  9.528647536094E-03 -2.910343169941E-01  4.216613211304E-01
H28 -9.528647536095E-03  2.910343169941E-01 -4.216613211304E-01
H29  2.113065226655E-01  3.282987488132E-01  3.816834859545E-01
H30 -2.113065226655E-01 -3.282987488132E-01 -3.816834859545E-01
H31  1.873066591698E-01  3.580347623595E-01  2.235500794603E-01
H32 -1.873066591698E-01 -3.580347623595E-01 -2.235500794603E-01
H33  1.575544880823E-01  3.891469216417E-01  6.462122557945E-02
H34 -1.575544880823E-01 -3.891469216417E-01 -6.462122557945E-02
H35 -1.277873367452E-01 -4.200658789610E-01  9.390254166455E-02
H36  1.277873367452E-01  4.200658789610E-01 -9.390254166455E-02
C37 -4.524936138687E-01 -4.325296374487E-01  4.031037299766E-01
C38  4.524936138687E-01  4.325296374487E-01 -4.031037299766E-01
C39  4.890604386358E-01 -3.145086504135E-01  3.309513950467E-01
C40 -4.890604386358E-01  3.145086504135E-01 -3.309513950467E-01
C41 -4.943942923805E-01 -4.159793009248E-01  2.432230242884E-01
C42  4.943942923805E-01  4.159793009248E-01 -2.432230242884E-01
C43  4.508032628846E-01 -2.978433449931E-01  1.694348018544E-01
C44 -4.508032628846E-01  2.978433449931E-01 -1.694348018544E-01
C45  4.734128089648E-01 -3.960247920219E-01  8.424227533450E-02
C46 -4.734128089648E-01  3.960247920219E-01 -8.424227533450E-02
C47  4.217633664933E-01 -2.759597210979E-01  1.012821116753E-02
C48 -4.217633664933E-01  2.759597210979E-01 -1.012821116753E-02
C49 -4.465594210978E-01  3.731856858196E-01  7.377528669281E-02
C50  4.465594210978E-01 -3.731856858196E-01 -7.377528669281E-02
C51 -3.936229923876E-01  2.538141173540E-01  1.491370541887E-01
C52  3.936229923876E-01 -2.538141173540E-01 -1.491370541887E-01
C53 -4.150536116535E-01  3.532381487150E-01  2.327425970123E-01
C54  4.150536116535E-01 -3.532381487150E-01 -2.327425970123E-01
C55 -3.562894808143E-01  2.360519421692E-01  3.105788134408E-01
C56  3.562894808143E-01 -2.360519421692E-01 -3.105788134408E-01
C57 -3.741608622662E-01  3.396540012978E-01  3.928785461889E-01
C58  3.741608622662E-01 -3.396540012978E-01 -3.928785461889E-01
H59 -4.648867002500E-01 -3.514264593142E-01  4.694198181690E-01
H60  4.648867002500E-01  3.514264593142E-01 -4.694198181690E-01
H61  4.298407499939E-01 -1.409223562283E-01  3.389710944098E-01
H62 -4.298407499939E-01  1.409223562283E-01 -3.389710944098E-01
H63  3.906625096696E-01 -1.246414911859E-01  1.774262211946E-01
H64 -3.906625096696E-01  1.246414911859E-01 -1.774262211946E-01
H65  3.608207903833E-01 -1.031388090393E-01  1.800580650897E-02
H66 -3.608207903833E-01  1.031388090393E-01 -1.800580650897E-02
H67 -3.322141209627E-01  8.115161522914E-02  1.414793491210E-01
H68  3.322141209627E-01 -8.115161522914E-02 -1.414793491210E-01
H69 -2.953690340083E-01  6.332549605134E-02  3.026577523121E-01
H70  2.953690340083E-01 -6.332549605134E-02 -3.026577523121E-01
H71 -3.282552306738E-01  2.490222287592E-01  4.516066295804E-01
H72  3.282552306738E-01 -2.490222287592E-01 -4.516066295804E-01


#===END

data_OPT_STEP_38

_symmetry_space_group_name_H-M 'P 1'
_cell_length_a      7.31394976
_cell_length_b      5.91419087
_cell_length_c     15.63267136
_cell_angle_alpha  101.949899
_cell_angle_beta  113.169142
_cell_angle_gamma   85.427366

loop_
_atom_site_label
_atom_site_fract_x
_atom_site_fract_y
_atom_site_fract_z
C1  1.210972902251E-01  3.004177917794E-02  4.122740917844E-01
C2 -1.210972902251E-01 -3.004177917794E-02 -4.122740917844E-01
C3 -2.889832314959E-02 -2.834142223447E-01  2.809058298187E-01
C4  2.889832314959E-02  2.834142223447E-01 -2.809058298187E-01
C5  3.139087575767E-02 -1.930645575732E-01  3.749306811466E-01
C6 -3.139087575767E-02  1.930645575732E-01 -3.749306811466E-01
C7  1.467526542693E-01  1.562996283155E-01  3.544029826379E-01
C8 -1.467526542693E-01 -1.562996283155E-01 -3.544029826379E-01
C9  8.850998744898E-02  6.684445299507E-02  2.552761197653E-01
C10 -8.850998744898E-02 -6.684445299507E-02 -2.552761197653E-01
C11  1.177037728010E-01  1.888227908310E-01  1.952308501807E-01
C12 -1.177037728010E-01 -1.888227908310E-01 -1.952308501807E-01
C13  5.989693502042E-02  9.804694047923E-02  9.771509245183E-02
C14 -5.989693502042E-02 -9.804694047923E-02 -9.771509245183E-02
C15  8.879904925020E-02  2.195394523164E-01  3.651152642399E-02
C16 -8.879904925020E-02 -2.195394523164E-01 -3.651152642399E-02
C17 -3.115121472384E-02 -1.281766314230E-01  6.003799957658E-02
C18  3.115121472384E-02  1.281766314230E-01 -6.003799957658E-02
C19 -5.949962863302E-02 -2.502768622754E-01  1.220759223361E-01
C20  5.949962863302E-02  2.502768622754E-01 -1.220759223361E-01
C21 -1.675199658330E-03 -1.592989197305E-01  2.176741029146E-01
C22  1.675199658330E-03  1.592989197305E-01 -2.176741029146E-01
H23  1.678132471438E-01  1.000667711076E-01  4.875420076611E-01
H24 -1.678132471438E-01 -1.000667711076E-01 -4.875420076611E-01
H25 -9.838051533707E-02 -4.522513973875E-01  2.520929839622E-01
H26  9.838051533707E-02  4.522513973875E-01 -2.520929839622E-01
H27  9.410995587981E-03 -2.910760717067E-01  4.216440733513E-01
H28 -9.410995587981E-03  2.910760717067E-01 -4.216440733513E-01
H29  2.112372641553E-01  3.282181089446E-01  3.817258567634E-01
H30 -2.112372641553E-01 -3.282181089446E-01 -3.817258567634E-01
H31  1.872428902200E-01  3.580250465545E-01  2.235787744758E-01
H32 -1.872428902200E-01 -3.580250465545E-01 -2.235787744758E-01
H33  1.575900084587E-01  3.890993194224E-01  6.464974281206E-02
H34 -1.575900084587E-01 -3.890993194224E-01 -6.464974281206E-02
H35 -1.277632932510E-01 -4.200968793457E-01  9.387684879642E-02
H36  1.277632932510E-01  4.200968793457E-01 -9.387684879642E-02
C37 -4.524189959100E-01 -4.325709852420E-01  4.031308703627E-01
C38  4.524189959100E-01  4.325709852420E-01 -4.031308703627E-01
C39  4.890911122322E-01 -3.145754420688E-01  3.309668543372E-01
C40 -4.890911122322E-01  3.145754420688E-01 -3.309668543372E-01
C41 -4.943943878052E-01 -4.160385797651E-01  2.432291070365E-01
C42  4.943943878052E-01  4.160385797651E-01 -2.432291070365E-01
C43  4.507595697376E-01 -2.979119479499E-01  1.694323747517E-01
C44 -4.507595697376E-01  2.979119479499E-01 -1.694323747517E-01
C45  4.733249878700E-01 -3.960925701519E-01  8.422768358275E-02
C46 -4.733249878700E-01  3.960925701519E-01 -8.422768358275E-02
C47  4.216883787071E-01 -2.760095060850E-01  1.011411440764E-02
C48 -4.216883787071E-01  2.760095060850E-01 -1.011411440764E-02
C49 -4.466301925006E-01  3.731304208996E-01  7.376322752286E-02
C50  4.466301925006E-01 -3.731304208996E-01 -7.376322752286E-02
C51 -3.937105412797E-01  2.537385226792E-01  1.491273672651E-01
C52  3.937105412797E-01 -2.537385226792E-01 -1.491273672651E-01
C53 -4.150975372001E-01  3.531605712745E-01  2.327380859938E-01
C54  4.150975372001E-01 -3.531605712745E-01 -2.327380859938E-01
C55 -3.563561908571E-01  2.359539190546E-01  3.105785659394E-01
C56  3.563561908571E-01 -2.359539190546E-01 -3.105785659394E-01
C57 -3.741852549082E-01  3.395664518036E-01  3.928854880810E-01
C58  3.741852549082E-01 -3.395664518036E-01 -3.928854880810E-01
H59 -4.647719650150E-01 -3.514791747070E-01  4.694663710503E-01
H60  4.647719650150E-01  3.514791747070E-01 -4.694663710503E-01
H61  4.298888944755E-01 -1.409869791942E-01  3.389866066893E-01
H62 -4.298888944755E-01  1.409869791942E-01 -3.389866066893E-01
H63  3.906720704746E-01 -1.246876918369E-01  1.774321637545E-01
H64 -3.906720704746E-01  1.246876918369E-01 -1.774321637545E-01
H65  3.606805052743E-01 -1.032340601620E-01  1.797932837074E-02
H66 -3.606805052743E-01  1.032340601620E-01 -1.797932837074E-02
H67 -3.323470601977E-01  8.105025769256E-02  1.414631790669E-01
H68  3.323470601977E-01 -8.105025769256E-02 -1.414631790669E-01
H69 -2.954951200332E-01  6.319757201954E-02  3.026460800026E-01
H70  2.954951200332E-01 -6.319757201954E-02 -3.026460800026E-01
H71 -3.283727594656E-01  2.488934780220E-01  4.516088929322E-01
H72  3.283727594656E-01 -2.488934780220E-01 -4.516088929322E-01


#===END

data_OPT_STEP_39

_symmetry_space_group_name_H-M 'P 1'
_cell_length_a      7.31435318
_cell_length_b      5.91512508
_cell_length_c     15.63212108
_cell_angle_alpha  101.947026
_cell_angle_beta  113.200764
_cell_angle_gamma   85.415957

loop_
_atom_site_label
_atom_site_fract_x
_atom_site_fract_y
_atom_site_fract_z
C1  1.210195006732E-01  2.981711097736E-02  4.122960556264E-01
C2 -1.210195006732E-01 -2.981711097736E-02 -4.122960556264E-01
C3 -2.891020253721E-02 -2.835543797836E-01  2.808675887886E-01
C4  2.891020253721E-02  2.835543797836E-01 -2.808675887886E-01
C5  3.128549101027E-02 -1.932111550645E-01  3.749111831045E-01
C6 -3.128549101027E-02  1.932111550645E-01 -3.749111831045E-01
C7  1.466800209841E-01  1.560944400859E-01  3.544417724599E-01
C8 -1.466800209841E-01 -1.560944400859E-01 -3.544417724599E-01
C9  8.844240724004E-02  6.672159158691E-02  2.552936403963E-01
C10 -8.844240724004E-02 -6.672159158691E-02 -2.552936403963E-01
C11  1.176774846575E-01  1.887078420407E-01  1.952722043743E-01
C12 -1.176774846575E-01 -1.887078420407E-01 -1.952722043743E-01
C13  5.993598604524E-02  9.795312758589E-02  9.773711925905E-02
C14 -5.993598604524E-02 -9.795312758589E-02 -9.773711925905E-02
C15  8.881620991521E-02  2.194903867424E-01  3.654881653825E-02
C16 -8.881620991521E-02 -2.194903867424E-01 -3.654881653825E-02
C17 -3.117333723154E-02 -1.281914828815E-01  6.001506205929E-02
C18  3.117333723154E-02  1.281914828815E-01 -6.001506205929E-02
C19 -5.958295589065E-02 -2.502645150141E-01  1.220297759163E-01
C20  5.958295589065E-02  2.502645150141E-01 -1.220297759163E-01
C21 -1.696494917606E-03 -1.594066558597E-01  2.176507149214E-01
C22  1.696494917606E-03  1.594066558597E-01 -2.176507149214E-01
H23  1.676797652727E-01  9.984753342686E-02  4.875759259627E-01
H24 -1.676797652727E-01 -9.984753342686E-02 -4.875759259627E-01
H25 -9.828896511620E-02 -4.524238090577E-01  2.520358660273E-01
H26  9.828896511620E-02  4.524238090577E-01 -2.520358660273E-01
H27  9.217609022151E-03 -2.912191209695E-01  4.215979598515E-01
H28 -9.217609022152E-03  2.912191209695E-01 -4.215979598515E-01
H29  2.111709509351E-01  3.279624009291E-01  3.818030844541E-01
H30 -2.111709509351E-01 -3.279624009291E-01 -3.818030844541E-01
H31  1.872974623624E-01  3.578219506824E-01  2.236576247238E-01
H32 -1.872974623624E-01 -3.578219506824E-01 -2.236576247238E-01
H33  1.575272701309E-01  3.890730529113E-01  6.471498083873E-02
H34 -1.575272701309E-01 -3.890730529113E-01 -6.471498083873E-02
H35 -1.278936598565E-01 -4.200200635971E-01  9.379604202920E-02
H36  1.278936598565E-01  4.200200635971E-01 -9.379604202920E-02
C37 -4.523592300610E-01 -4.326479377475E-01  4.031598361589E-01
C38  4.523592300610E-01  4.326479377475E-01 -4.031598361589E-01
C39  4.891236019644E-01 -3.146741144129E-01  3.309827882234E-01
C40 -4.891236019644E-01  3.146741144129E-01 -3.309827882234E-01
C41 -4.944399993723E-01 -4.161364655534E-01  2.432285702979E-01
C42  4.944399993723E-01  4.161364655534E-01 -2.432285702979E-01
C43  4.506671842789E-01 -2.980331320489E-01  1.694088950359E-01
C44 -4.506671842789E-01  2.980331320489E-01 -1.694088950359E-01
C45  4.733081203998E-01 -3.961348316275E-01  8.422089358839E-02
C46 -4.733081203998E-01  3.961348316275E-01 -8.422089358839E-02
C47  4.217524300494E-01 -2.760112573970E-01  1.011054277612E-02
C48 -4.217524300494E-01  2.760112573970E-01 -1.011054277612E-02
C49 -4.466458071999E-01  3.731203259894E-01  7.377149704554E-02
C50  4.466458071999E-01 -3.731203259894E-01 -7.377149704554E-02
C51 -3.937926529886E-01  2.536952126408E-01  1.491367927229E-01
C52  3.937926529886E-01 -2.536952126408E-01 -1.491367927229E-01
C53 -4.151908375649E-01  3.530689839801E-01  2.327390637785E-01
C54  4.151908375649E-01 -3.530689839801E-01 -2.327390637785E-01
C55 -3.564830724740E-01  2.358481482317E-01  3.105873221465E-01
C56  3.564830724740E-01 -2.358481482317E-01 -3.105873221465E-01
C57 -3.742278098820E-01  3.394761851258E-01  3.929040630455E-01
C58  3.742278098820E-01 -3.394761851258E-01 -3.929040630455E-01
H59 -4.646126298727E-01 -3.515676023981E-01  4.695306104369E-01
H60  4.646126298727E-01  3.515676023981E-01 -4.695306104369E-01
H61  4.300043195484E-01 -1.410641130811E-01  3.390076815977E-01
H62 -4.300043195484E-01  1.410641130811E-01 -3.390076815977E-01
H63  3.906725470347E-01 -1.247761973701E-01  1.774120043483E-01
H64 -3.906725470347E-01  1.247761973701E-01 -1.774120043483E-01
H65  3.608657509386E-01 -1.031888133356E-01  1.798591069453E-02
H66 -3.608657509386E-01  1.031888133356E-01 -1.798591069453E-02
H67 -3.323139257065E-01  8.109481330438E-02  1.415073302599E-01
H68  3.323139257065E-01 -8.109481330438E-02 -1.415073302599E-01
H69 -2.956419702511E-01  6.310666250294E-02  3.026586705265E-01
H70  2.956419702511E-01 -6.310666250294E-02 -3.026586705265E-01
H71 -3.285346883789E-01  2.487589213761E-01  4.516233630100E-01
H72  3.285346883789E-01 -2.487589213761E-01 -4.516233630100E-01


#===END

data_OPT_STEP_40

_symmetry_space_group_name_H-M 'P 1'
_cell_length_a      7.31467708
_cell_length_b      5.91595100
_cell_length_c     15.63223241
_cell_angle_alpha  101.945630
_cell_angle_beta  113.233248
_cell_angle_gamma   85.407214

loop_
_atom_site_label
_atom_site_fract_x
_atom_site_fract_y
_atom_site_fract_z
C1  1.209363798763E-01  2.960222744834E-02  4.123046713310E-01
C2 -1.209363798763E-01 -2.960222744834E-02 -4.123046713310E-01
C3 -2.902732746871E-02 -2.836663741733E-01  2.808147592785E-01
C4  2.902732746871E-02  2.836663741733E-01 -2.808147592785E-01
C5  3.120774890255E-02 -1.934016978829E-01  3.748812630306E-01
C6 -3.120774890255E-02  1.934016978829E-01 -3.748812630306E-01
C7  1.465933747466E-01  1.559063111127E-01  3.544662148895E-01
C8 -1.465933747466E-01 -1.559063111127E-01 -3.544662148895E-01
C9  8.839419990175E-02  6.656196521540E-02  2.553040447532E-01
C10 -8.839419990175E-02 -6.656196521540E-02 -2.553040447532E-01
C11  1.176469466567E-01  1.885732204503E-01  1.953048153766E-01
C12 -1.176469466567E-01 -1.885732204503E-01 -1.953048153766E-01
C13  5.988773610969E-02  9.790704554351E-02  9.775213596230E-02
C14 -5.988773610969E-02 -9.790704554351E-02 -9.775213596230E-02
C15  8.885979656785E-02  2.194237014091E-01  3.659948102739E-02
C16 -8.885979656785E-02 -2.194237014091E-01 -3.659948102739E-02
C17 -3.122262149703E-02 -1.282013050277E-01  5.998578947853E-02
C18  3.122262149703E-02  1.282013050277E-01 -5.998578947853E-02
C19 -5.956304535699E-02 -2.503803701620E-01  1.219814237912E-01
C20  5.956304535699E-02  2.503803701620E-01 -1.219814237912E-01
C21 -1.761747342908E-03 -1.595262765533E-01  2.176211385661E-01
C22  1.761747342908E-03  1.595262765533E-01 -2.176211385661E-01
H23  1.675585600770E-01  9.961656491124E-02  4.875983126032E-01
H24 -1.675585600770E-01 -9.961656491124E-02 -4.875983126032E-01
H25 -9.845634183357E-02 -4.524829761139E-01  2.519489538473E-01
H26  9.845634183357E-02  4.524829761139E-01 -2.519489538473E-01
H27  9.209645197456E-03 -2.914784671299E-01  4.215570837657E-01
H28 -9.209645197457E-03  2.914784671299E-01 -4.215570837657E-01
H29  2.110596104631E-01  3.277509220196E-01  3.818422181647E-01
H30 -2.110596104631E-01 -3.277509220196E-01 -3.818422181647E-01
H31  1.872644001401E-01  3.576642181992E-01  2.237238521205E-01
H32 -1.872644001401E-01 -3.576642181992E-01 -2.237238521205E-01
H33  1.576668958623E-01  3.889158613924E-01  6.480955121430E-02
H34 -1.576668958623E-01 -3.889158613924E-01 -6.480955121430E-02
H35 -1.278051163464E-01 -4.201594508696E-01  9.371555712369E-02
H36  1.278051163464E-01  4.201594508696E-01 -9.371555712369E-02
C37 -4.524388260812E-01 -4.327684414072E-01  4.031563424175E-01
C38  4.524388260812E-01  4.327684414072E-01 -4.031563424175E-01
C39  4.891032700721E-01 -3.147440496103E-01  3.309789928781E-01
C40 -4.891032700721E-01  3.147440496103E-01 -3.309789928781E-01
C41 -4.945010899652E-01 -4.162014310521E-01  2.432217956819E-01
C42  4.945010899652E-01  4.162014310521E-01 -2.432217956819E-01
C43  4.507034136657E-01 -2.980391997863E-01  1.694018736515E-01
C44 -4.507034136657E-01  2.980391997863E-01 -1.694018736515E-01
C45  4.733647134188E-01 -3.961150065913E-01  8.422436186837E-02
C46 -4.733647134188E-01  3.961150065913E-01 -8.422436186837E-02
C47  4.217360140001E-01 -2.760436736761E-01  1.008553156412E-02
C48 -4.217360140001E-01  2.760436736761E-01 -1.008553156412E-02
C49 -4.466372684856E-01  3.731368991437E-01  7.378893818967E-02
C50  4.466372684856E-01 -3.731368991437E-01 -7.378893818967E-02
C51 -3.938724137355E-01  2.536689390771E-01  1.491499489470E-01
C52  3.938724137355E-01 -2.536689390771E-01 -1.491499489470E-01
C53 -4.152803822185E-01  3.530106163697E-01  2.327475994855E-01
C54  4.152803822185E-01 -3.530106163697E-01 -2.327475994855E-01
C55 -3.566358546140E-01  2.357481850343E-01  3.105928698710E-01
C56  3.566358546140E-01 -2.357481850343E-01 -3.105928698710E-01
C57 -3.743806391735E-01  3.393441330491E-01  3.929066543507E-01
C58  3.743806391735E-01 -3.393441330491E-01 -3.929066543507E-01
H59 -4.645567941689E-01 -3.516644398585E-01  4.695443247435E-01
H60  4.645567941689E-01  3.516644398585E-01 -4.695443247435E-01
H61  4.300472482298E-01 -1.411170779189E-01  3.390024929025E-01
H62 -4.300472482298E-01  1.411170779189E-01 -3.390024929025E-01
H63  3.907212124288E-01 -1.247898067032E-01  1.773912168233E-01
H64 -3.907212124288E-01  1.247898067032E-01 -1.773912168233E-01
H65  3.607177758294E-01 -1.033094571208E-01  1.791922595661E-02
H66 -3.607177758294E-01  1.033094571208E-01 -1.791922595661E-02
H67 -3.325214067919E-01  8.101137362775E-02  1.415126531487E-01
H68  3.325214067919E-01 -8.101137362775E-02 -1.415126531487E-01
H69 -2.958405817463E-01  6.300277107823E-02  3.026695610756E-01
H70  2.958405817463E-01 -6.300277107823E-02 -3.026695610756E-01
H71 -3.286691840734E-01  2.486354228140E-01  4.516358947150E-01
H72  3.286691840734E-01 -2.486354228140E-01 -4.516358947150E-01


#===END

data_OPT_STEP_41

_symmetry_space_group_name_H-M 'P 1'
_cell_length_a      7.31487712
_cell_length_b      5.91683442
_cell_length_c     15.63220169
_cell_angle_alpha  101.942180
_cell_angle_beta  113.263271
_cell_angle_gamma   85.403290

loop_
_atom_site_label
_atom_site_fract_x
_atom_site_fract_y
_atom_site_fract_z
C1  1.209103485126E-01  2.931768535793E-02  4.123054506552E-01
C2 -1.209103485126E-01 -2.931768535793E-02 -4.123054506552E-01
C3 -2.914941056148E-02 -2.838069428205E-01  2.807590735610E-01
C4  2.914941056148E-02  2.838069428205E-01 -2.807590735610E-01
C5  3.118318043723E-02 -1.936651113332E-01  3.748474328588E-01
C6 -3.118318043723E-02  1.936651113332E-01 -3.748474328588E-01
C7  1.465331818746E-01  1.556762685325E-01  3.544823898771E-01
C8 -1.465331818746E-01 -1.556762685325E-01 -3.544823898771E-01
C9  8.832599382129E-02  6.639957762078E-02  2.553086287054E-01
C10 -8.832599382129E-02 -6.639957762078E-02 -2.553086287054E-01
C11  1.176249204036E-01  1.884238886633E-01  1.953341523775E-01
C12 -1.176249204036E-01 -1.884238886633E-01 -1.953341523775E-01
C13  5.987609731370E-02  9.782530597200E-02  9.776790322040E-02
C14 -5.987609731370E-02 -9.782530597200E-02 -9.776790322040E-02
C15  8.882738698897E-02  2.194199374326E-01  3.664052717351E-02
C16 -8.882738698897E-02 -2.194199374326E-01 -3.664052717351E-02
C17 -3.120962334389E-02 -1.282648342011E-01  5.996528115622E-02
C18  3.120962334389E-02  1.282648342011E-01 -5.996528115622E-02
C19 -5.967851458114E-02 -2.504107887879E-01  1.219280106888E-01
C20  5.967851458114E-02  2.504107887879E-01 -1.219280106888E-01
C21 -1.890130782691E-03 -1.596216571380E-01  2.175858642481E-01
C22  1.890130782691E-03  1.596216571380E-01 -2.175858642481E-01
H23  1.675858250575E-01  9.923905673728E-02  4.876159912269E-01
H24 -1.675858250575E-01 -9.923905673728E-02 -4.876159912269E-01
H25 -9.871287347899E-02 -4.525205678293E-01  2.518516451173E-01
H26  9.871287347899E-02  4.525205678293E-01 -2.518516451173E-01
H27  9.226811450904E-03 -2.917646664471E-01  4.215180284141E-01
H28 -9.226811450904E-03  2.917646664471E-01 -4.215180284141E-01
H29  2.109510504079E-01  3.275206767326E-01  3.818707393590E-01
H30 -2.109510504079E-01 -3.275206767326E-01 -3.818707393590E-01
H31  1.870685886612E-01  3.576191528256E-01  2.237771476928E-01
H32 -1.870685886612E-01 -3.576191528256E-01 -2.237771476928E-01
H33  1.576269498071E-01  3.888980546869E-01  6.488401200251E-02
H34 -1.576269498071E-01 -3.888980546869E-01 -6.488401200251E-02
H35 -1.280113391990E-01 -4.201130277822E-01  9.362302263312E-02
H36  1.280113391990E-01  4.201130277822E-01 -9.362302263312E-02
C37 -4.524768079727E-01 -4.329197916674E-01  4.031608024185E-01
C38  4.524768079727E-01  4.329197916674E-01 -4.031608024185E-01
C39  4.890769833260E-01 -3.148623566605E-01  3.309716752304E-01
C40 -4.890769833260E-01  3.148623566605E-01 -3.309716752304E-01
C41 -4.945281509113E-01 -4.162797391454E-01  2.432204791037E-01
C42  4.945281509113E-01  4.162797391454E-01 -2.432204791037E-01
C43  4.506590531124E-01 -2.981257019248E-01  1.693853208613E-01
C44 -4.506590531124E-01  2.981257019248E-01 -1.693853208613E-01
C45  4.731958636241E-01 -3.962450862761E-01  8.418869605317E-02
C46 -4.731958636241E-01  3.962450862761E-01 -8.418869605317E-02
C47  4.217643808618E-01 -2.760472659593E-01  1.007370275489E-02
C48 -4.217643808618E-01  2.760472659593E-01 -1.007370275489E-02
C49 -4.468280936199E-01  3.730264075958E-01  7.376700438909E-02
C50  4.468280936199E-01 -3.730264075958E-01 -7.376700438909E-02
C51 -3.939303007050E-01  2.536201189610E-01  1.491626818103E-01
C52  3.939303007050E-01 -2.536201189610E-01 -1.491626818103E-01
C53 -4.153071691442E-01  3.529624249044E-01  2.327652207042E-01
C54  4.153071691442E-01 -3.529624249043E-01 -2.327652207042E-01
C55 -3.567005686056E-01  2.356610923561E-01  3.106126325571E-01
C56  3.567005686056E-01 -2.356610923561E-01 -3.106126325571E-01
C57 -3.744441365138E-01  3.392144391095E-01  3.929254563019E-01
C58  3.744441365138E-01 -3.392144391095E-01 -3.929254563019E-01
H59 -4.644898428567E-01 -3.517992368216E-01  4.695505150779E-01
H60  4.644898428567E-01  3.517992368216E-01 -4.695505150779E-01
H61  4.300609888078E-01 -1.412383471392E-01  3.389885458768E-01
H62 -4.300609888078E-01  1.412383471392E-01 -3.389885458768E-01
H63  3.905862292832E-01 -1.249487172674E-01  1.773442616284E-01
H64 -3.905862292832E-01  1.249487172674E-01 -1.773442616284E-01
H65  3.608312182971E-01 -1.032842080441E-01  1.790957865153E-02
H66 -3.608312182971E-01  1.032842080441E-01 -1.790957865153E-02
H67 -3.326154951010E-01  8.096825435113E-02  1.415289451577E-01
H68  3.326154951010E-01 -8.096825435113E-02 -1.415289451577E-01
H69 -2.960028728519E-01  6.288634135900E-02  3.026852690441E-01
H70  2.960028728519E-01 -6.288634135900E-02 -3.026852690441E-01
H71 -3.287217949665E-01  2.484897070294E-01  4.516581470779E-01
H72  3.287217949665E-01 -2.484897070294E-01 -4.516581470779E-01


#===END

data_OPT_STEP_42

_symmetry_space_group_name_H-M 'P 1'
_cell_length_a      7.31504382
_cell_length_b      5.91702832
_cell_length_c     15.63184853
_cell_angle_alpha  101.939678
_cell_angle_beta  113.270261
_cell_angle_gamma   85.402076

loop_
_atom_site_label
_atom_site_fract_x
_atom_site_fract_y
_atom_site_fract_z
C1  1.208788938875E-01  2.928463096515E-02  4.123107430123E-01
C2 -1.208788938875E-01 -2.928463096515E-02 -4.123107430123E-01
C3 -2.916209566582E-02 -2.838329414494E-01  2.807549490475E-01
C4  2.916209566582E-02  2.838329414494E-01 -2.807549490475E-01
C5  3.115342285714E-02 -1.936903296875E-01  3.748467998243E-01
C6 -3.115342285714E-02  1.936903296875E-01 -3.748467998243E-01
C7  1.465253432041E-01  1.556260824884E-01  3.544904839110E-01
C8 -1.465253432041E-01 -1.556260824884E-01 -3.544904839110E-01
C9  8.831214119941E-02  6.636913179062E-02  2.553126237769E-01
C10 -8.831214119941E-02 -6.636913179062E-02 -2.553126237769E-01
C11  1.175845862546E-01  1.884228834441E-01  1.953401249998E-01
C12 -1.175845862546E-01 -1.884228834441E-01 -1.953401249998E-01
C13  5.984953517829E-02  9.783061159642E-02  9.777008845363E-02
C14 -5.984953517829E-02 -9.783061159642E-02 -9.777008845363E-02
C15  8.884708632440E-02  2.194012640489E-01  3.664747652449E-02
C16 -8.884708632440E-02 -2.194012640489E-01 -3.664747652449E-02
C17 -3.125521918584E-02 -1.282420903717E-01  5.996056544829E-02
C18  3.125521918584E-02  1.282420903717E-01 -5.996056544829E-02
C19 -5.969828790226E-02 -2.504138712064E-01  1.219236969114E-01
C20  5.969828790226E-02  2.504138712064E-01 -1.219236969114E-01
C21 -1.888930774921E-03 -1.596519091375E-01  2.175846562321E-01
C22  1.888930774921E-03  1.596519091375E-01 -2.175846562321E-01
H23  1.675699534738E-01  9.918944397566E-02  4.876243675487E-01
H24 -1.675699534738E-01 -9.918944397566E-02 -4.876243675487E-01
H25 -9.868416732475E-02 -4.525672664716E-01  2.518462374219E-01
H26  9.868416732475E-02  4.525672664716E-01 -2.518462374219E-01
H27  9.167602816251E-03 -2.917656675600E-01  4.215163917335E-01
H28 -9.167602816251E-03  2.917656675600E-01 -4.215163917335E-01
H29  2.109388143258E-01  3.274697338242E-01  3.818899823076E-01
H30 -2.109388143258E-01 -3.274697338242E-01 -3.818899823076E-01
H31  1.871137323467E-01  3.575475627537E-01  2.237923537277E-01
H32 -1.871137323467E-01 -3.575475627537E-01 -2.237923537277E-01
H33  1.576273121171E-01  3.888872437654E-01  6.489434024362E-02
H34 -1.576273121171E-01 -3.888872437654E-01 -6.489434024362E-02
H35 -1.280050353009E-01 -4.201255816649E-01  9.361633687284E-02
H36  1.280050353009E-01  4.201255816649E-01 -9.361633687284E-02
C37 -4.524293008898E-01 -4.329510557016E-01  4.031740491279E-01
C38  4.524293008898E-01  4.329510557016E-01 -4.031740491279E-01
C39  4.890942903004E-01 -3.149075831686E-01  3.309751172465E-01
C40 -4.890942903004E-01  3.149075831686E-01 -3.309751172465E-01
C41 -4.945340257580E-01 -4.163225294330E-01  2.432195149046E-01
C42  4.945340257580E-01  4.163225294330E-01 -2.432195149046E-01
C43  4.506621483276E-01 -2.981590130750E-01  1.693852217917E-01
C44 -4.506621483276E-01  2.981590130750E-01 -1.693852217917E-01
C45  4.732359189102E-01 -3.962384243006E-01  8.419587990066E-02
C46 -4.732359189102E-01  3.962384243006E-01 -8.419587990066E-02
C47  4.217618365674E-01 -2.760572452339E-01  1.007245806189E-02
C48 -4.217618365674E-01  2.760572452339E-01 -1.007245806189E-02
C49 -4.467814203780E-01  3.730440826754E-01  7.377565556471E-02
C50  4.467814203780E-01 -3.730440826754E-01 -7.377565556471E-02
C51 -3.939446184368E-01  2.535959265941E-01  1.491619801709E-01
C52  3.939446184368E-01 -2.535959265941E-01 -1.491619801709E-01
C53 -4.153362312890E-01  3.529162350017E-01  2.327619228232E-01
C54  4.153362312890E-01 -3.529162350017E-01 -2.327619228232E-01
C55 -3.567048306450E-01  2.356196435363E-01  3.106189490823E-01
C56  3.567048306450E-01 -2.356196435363E-01 -3.106189490823E-01
C57 -3.744223349257E-01  3.391770365193E-01  3.929363799865E-01
C58  3.744223349257E-01 -3.391770365193E-01 -3.929363799865E-01
H59 -4.644489853469E-01 -3.518431913058E-01  4.695638894988E-01
H60  4.644489853469E-01  3.518431913058E-01 -4.695638894988E-01
H61  4.300799852968E-01 -1.412913535755E-01  3.389887607277E-01
H62 -4.300799852968E-01  1.412913535755E-01 -3.389887607277E-01
H63  3.906178834145E-01 -1.249757438034E-01  1.773487057518E-01
H64 -3.906178834145E-01  1.249757438034E-01 -1.773487057518E-01
H65  3.608216326322E-01 -1.033067390149E-01  1.790619723352E-02
H66 -3.608216326322E-01  1.033067390149E-01 -1.790619723352E-02
H67 -3.326263800838E-01  8.095285872212E-02  1.415307044515E-01
H68  3.326263800838E-01 -8.095285872212E-02 -1.415307044515E-01
H69 -2.960219445496E-01  6.284192512416E-02  3.026903419167E-01
H70  2.960219445496E-01 -6.284192512416E-02 -3.026903419167E-01
H71 -3.287409359841E-01  2.484242118026E-01  4.516658334615E-01
H72  3.287409359841E-01 -2.484242118026E-01 -4.516658334615E-01


#===END

data_OPT_STEP_43

_symmetry_space_group_name_H-M 'P 1'
_cell_length_a      7.31521761
_cell_length_b      5.91735079
_cell_length_c     15.63144669
_cell_angle_alpha  101.934759
_cell_angle_beta  113.284742
_cell_angle_gamma   85.398437

loop_
_atom_site_label
_atom_site_fract_x
_atom_site_fract_y
_atom_site_fract_z
C1  1.208421392055E-01  2.920496678830E-02  4.123255881518E-01
C2 -1.208421392055E-01 -2.920496678830E-02 -4.123255881518E-01
C3 -2.913948106700E-02 -2.839137202785E-01  2.807492025826E-01
C4  2.913948106700E-02  2.839137202785E-01 -2.807492025826E-01
C5  3.109679258732E-02 -1.937407012316E-01  3.748458118839E-01
C6 -3.109679258732E-02  1.937407012316E-01 -3.748458118839E-01
C7  1.465373858393E-01  1.555193287260E-01  3.545123218057E-01
C8 -1.465373858393E-01 -1.555193287260E-01 -3.545123218057E-01
C9  8.835152775309E-02  6.627367602342E-02  2.553260745707E-01
C10 -8.835152775309E-02 -6.627367602342E-02 -2.553260745707E-01
C11  1.176550430167E-01  1.883197064969E-01  1.953618495545E-01
C12 -1.176550430167E-01 -1.883197064969E-01 -1.953618495545E-01
C13  5.992145884917E-02  9.775330918299E-02  9.778363077908E-02
C14 -5.992145884917E-02 -9.775330918299E-02 -9.778363077908E-02
C15  8.886768241072E-02  2.193731394492E-01  3.665902961010E-02
C16 -8.886768241072E-02 -2.193731394492E-01 -3.665902961010E-02
C17 -3.120479347729E-02 -1.282927953543E-01  5.995692972420E-02
C18  3.120479347729E-02  1.282927953543E-01 -5.995692972420E-02
C19 -5.963462835938E-02 -2.504814973313E-01  1.219165143748E-01
C20  5.963462835938E-02  2.504814973313E-01 -1.219165143748E-01
C21 -1.851674248860E-03 -1.597292238290E-01  2.175837123170E-01
C22  1.851674248860E-03  1.597292238290E-01 -2.175837123170E-01
H23  1.674667625230E-01  9.914266609568E-02  4.876411538508E-01
H24 -1.674667625230E-01 -9.914266609568E-02 -4.876411538508E-01
H25 -9.859719381346E-02 -4.526753037297E-01  2.518367215564E-01
H26  9.859719381346E-02  4.526753037297E-01 -2.518367215564E-01
H27  9.107666399918E-03 -2.918208653181E-01  4.215138541779E-01
H28 -9.107666399918E-03  2.918208653181E-01 -4.215138541779E-01
H29  2.109715123177E-01  3.273400950561E-01  3.819284450020E-01
H30 -2.109715123177E-01 -3.273400950561E-01 -3.819284450020E-01
H31  1.872314012908E-01  3.573998311108E-01  2.238282514130E-01
H32 -1.872314012908E-01 -3.573998311108E-01 -2.238282514130E-01
H33  1.577044609829E-01  3.888066865085E-01  6.492079598411E-02
H34 -1.577044609829E-01 -3.888066865085E-01 -6.492079598411E-02
H35 -1.279468293035E-01 -4.201744334188E-01  9.359943241880E-02
H36  1.279468293035E-01  4.201744334188E-01 -9.359943241880E-02
C37 -4.523886133061E-01 -4.329903472465E-01  4.031870834279E-01
C38  4.523886133061E-01  4.329903472465E-01 -4.031870834279E-01
C39  4.891494227288E-01 -3.149389058588E-01  3.309833812525E-01
C40 -4.891494227288E-01  3.149389058588E-01 -3.309833812525E-01
C41 -4.945155100833E-01 -4.163540022489E-01  2.432222570242E-01
C42  4.945155100833E-01  4.163540022489E-01 -2.432222570242E-01
C43  4.506891197110E-01 -2.981803430929E-01  1.693828596983E-01
C44 -4.506891197110E-01  2.981803430929E-01 -1.693828596983E-01
C45  4.733076740996E-01 -3.962131635864E-01  8.420526076074E-02
C46 -4.733076740996E-01  3.962131635864E-01 -8.420526076074E-02
C47  4.217915998311E-01 -2.760568790607E-01  1.006808198847E-02
C48 -4.217915998311E-01  2.760568790607E-01 -1.006808198847E-02
C49 -4.467175992520E-01  3.730765843418E-01  7.379299275830E-02
C50  4.467175992520E-01 -3.730765843418E-01 -7.379299275830E-02
C51 -3.939299456020E-01  2.535996717776E-01  1.491782327703E-01
C52  3.939299456020E-01 -2.535996717776E-01 -1.491782327703E-01
C53 -4.153226584169E-01  3.528968081027E-01  2.327738025275E-01
C54  4.153226584169E-01 -3.528968081027E-01 -2.327738025275E-01
C55 -3.567679106020E-01  2.355572403772E-01  3.106244796866E-01
C56  3.567679106020E-01 -2.355572403772E-01 -3.106244796866E-01
C57 -3.744637403977E-01  3.391051625594E-01  3.929439394898E-01
C58  3.744637403977E-01 -3.391051625594E-01 -3.929439394898E-01
H59 -4.644024615423E-01 -3.518997445992E-01  4.695830017998E-01
H60  4.644024615423E-01  3.518997445992E-01 -4.695830017998E-01
H61  4.301413551199E-01 -1.413298281713E-01  3.389914859124E-01
H62 -4.301413551199E-01  1.413298281713E-01 -3.389914859124E-01
H63  3.906932121563E-01 -1.249810227861E-01  1.773478524015E-01
H64 -3.906932121563E-01  1.249810227861E-01 -1.773478524015E-01
H65  3.608352763445E-01 -1.033272736688E-01  1.789073717679E-02
H66 -3.608352763445E-01  1.033272736688E-01 -1.789073717679E-02
H67 -3.325806972304E-01  8.098308797115E-02  1.415619859469E-01
H68  3.325806972304E-01 -8.098308797115E-02 -1.415619859469E-01
H69 -2.960817149621E-01  6.279101667149E-02  3.027038281507E-01
H70  2.960817149621E-01 -6.279101667149E-02 -3.027038281507E-01
H71 -3.288092280901E-01  2.483385767314E-01  4.516768726797E-01
H72  3.288092280901E-01 -2.483385767314E-01 -4.516768726797E-01


#===END

data_OPT_STEP_44

_symmetry_space_group_name_H-M 'P 1'
_cell_length_a      7.31570587
_cell_length_b      5.91838849
_cell_length_c     15.63169874
_cell_angle_alpha  101.930899
_cell_angle_beta  113.320092
_cell_angle_gamma   85.391186

loop_
_atom_site_label
_atom_site_fract_x
_atom_site_fract_y
_atom_site_fract_z
C1  1.208594164360E-01  2.896071276503E-02  4.123381405983E-01
C2 -1.208594164360E-01 -2.896071276503E-02 -4.123381405983E-01
C3 -2.915699975347E-02 -2.840430133259E-01  2.807049578916E-01
C4  2.915699975347E-02  2.840430133259E-01 -2.807049578916E-01
C5  3.109007171994E-02 -1.939354647079E-01  3.748193740012E-01
C6 -3.109007171994E-02  1.939354647079E-01 -3.748193740012E-01
C7  1.465280677322E-01  1.553100493077E-01  3.545413039206E-01
C8 -1.465280677322E-01 -1.553100493077E-01 -3.545413039206E-01
C9  8.830646831475E-02  6.614832303361E-02  2.553364293200E-01
C10 -8.830646831475E-02 -6.614832303361E-02 -2.553364293200E-01
C11  1.176209174493E-01  1.882163170204E-01  1.953939687590E-01
C12 -1.176209174493E-01 -1.882163170204E-01 -1.953939687590E-01
C13  5.985764301113E-02  9.773840600998E-02  9.779684200457E-02
C14 -5.985764301113E-02 -9.773840600998E-02 -9.779684200457E-02
C15  8.889665995160E-02  2.193208446165E-01  3.670209084049E-02
C16 -8.889665995160E-02 -2.193208446165E-01 -3.670209084049E-02
C17 -3.131194973166E-02 -1.282460891508E-01  5.992870275609E-02
C18  3.131194973166E-02  1.282460891508E-01 -5.992870275609E-02
C19 -5.971803300581E-02 -2.504799472029E-01  1.218696943611E-01
C20  5.971803300581E-02  2.504799472029E-01 -1.218696943611E-01
C21 -1.886964617371E-03 -1.598212757580E-01  2.175561666793E-01
C22  1.886964617371E-03  1.598212757580E-01 -2.175561666793E-01
H23  1.674918493858E-01  9.885245147763E-02  4.876681378557E-01
H24 -1.674918493858E-01 -9.885245147763E-02 -4.876681378557E-01
H25 -9.862090840333E-02 -4.527720082027E-01  2.517635425192E-01
H26  9.862090840333E-02  4.527720082027E-01 -2.517635425192E-01
H27  9.082446939469E-03 -2.920117297388E-01  4.214752232180E-01
H28 -9.082446939469E-03  2.920117297388E-01 -4.214752232180E-01
H29  2.109632049287E-01  3.271029724347E-01  3.819832148062E-01
H30 -2.109632049287E-01 -3.271029724347E-01 -3.819832148062E-01
H31  1.872941638717E-01  3.572013213547E-01  2.238987018644E-01
H32 -1.872941638717E-01 -3.572013213547E-01 -2.238987018644E-01
H33  1.576969376122E-01  3.887539705017E-01  6.499346869570E-02
H34 -1.576969376122E-01 -3.887539705017E-01 -6.499346869570E-02
H35 -1.279942282607E-01 -4.201684259655E-01  9.352437601120E-02
H36  1.279942282607E-01  4.201684259655E-01 -9.352437601120E-02
C37 -4.524078527462E-01 -4.331047296983E-01  4.031871857140E-01
C38  4.524078527462E-01  4.331047296983E-01 -4.031871857140E-01
C39  4.891805032133E-01 -3.150256306822E-01  3.309796961576E-01
C40 -4.891805032133E-01  3.150256306822E-01 -3.309796961576E-01
C41 -4.945137000458E-01 -4.164183814341E-01  2.432198851665E-01
C42  4.945137000458E-01  4.164183814341E-01 -2.432198851665E-01
C43  4.507062627306E-01 -2.982356034710E-01  1.693690102026E-01
C44 -4.507062627306E-01  2.982356034710E-01 -1.693690102026E-01
C45  4.732985951508E-01 -3.962512216322E-01  8.419469956110E-02
C46 -4.732985951508E-01  3.962512216322E-01 -8.419469956110E-02
C47  4.217961365762E-01 -2.760915844070E-01  1.004691787616E-02
C48 -4.217961365762E-01  2.760915844070E-01 -1.004691787616E-02
C49 -4.467417053823E-01  3.730672441921E-01  7.380233435026E-02
C50  4.467417053823E-01 -3.730672441921E-01 -7.380233435026E-02
C51 -3.939941406622E-01  2.535714374953E-01  1.491922435254E-01
C52  3.939941406622E-01 -2.535714374953E-01 -1.491922435254E-01
C53 -4.153787268911E-01  3.528360930966E-01  2.327817145491E-01
C54  4.153787268911E-01 -3.528360930966E-01 -2.327817145491E-01
C55 -3.567834654683E-01  2.355188612595E-01  3.106530591614E-01
C56  3.567834654683E-01 -2.355188612595E-01 -3.106530591614E-01
C57 -3.745028845959E-01  3.390245054764E-01  3.929622373390E-01
C58  3.745028845959E-01 -3.390245054764E-01 -3.929622373390E-01
H59 -4.643819943731E-01 -3.520192425021E-01  4.695900352405E-01
H60  4.643819943731E-01  3.520192425021E-01 -4.695900352405E-01
H61  4.302742307127E-01 -1.413915763796E-01  3.389926083285E-01
H62 -4.302742307127E-01  1.413915763796E-01 -3.389926083285E-01
H63  3.907598679023E-01 -1.250364723865E-01  1.773261602952E-01
H64 -3.907598679023E-01  1.250364723865E-01 -1.773261602952E-01
H65  3.608848908537E-01 -1.033614463148E-01  1.786039801130E-02
H66 -3.608848908537E-01  1.033614463148E-01 -1.786039801130E-02
H67 -3.326632541313E-01  8.096995562043E-02  1.415898107931E-01
H68  3.326632541313E-01 -8.096995562043E-02 -1.415898107931E-01
H69 -2.960539252899E-01  6.280702084546E-02  3.027573615664E-01
H70  2.960539252899E-01 -6.280702084546E-02 -3.027573615664E-01
H71 -3.288977890888E-01  2.482373695825E-01  4.516982977840E-01
H72  3.288977890888E-01 -2.482373695825E-01 -4.516982977840E-01


#===END

data_OPT_STEP_45

_symmetry_space_group_name_H-M 'P 1'
_cell_length_a      7.31576614
_cell_length_b      5.91856258
_cell_length_c     15.63140649
_cell_angle_alpha  101.928280
_cell_angle_beta  113.326935
_cell_angle_gamma   85.390255

loop_
_atom_site_label
_atom_site_fract_x
_atom_site_fract_y
_atom_site_fract_z
C1  1.208495167571E-01  2.890942339307E-02  4.123447613522E-01
C2 -1.208495167571E-01 -2.890942339307E-02 -4.123447613522E-01
C3 -2.917876821658E-02 -2.840626176716E-01  2.807028501219E-01
C4  2.917876821658E-02  2.840626176716E-01 -2.807028501219E-01
C5  3.108989576389E-02 -1.939858916766E-01  3.748216488304E-01
C6 -3.108989576389E-02  1.939858916766E-01 -3.748216488304E-01
C7  1.465369819582E-01  1.552505993666E-01  3.545500316354E-01
C8 -1.465369819582E-01 -1.552505993666E-01 -3.545500316354E-01
C9  8.831877439924E-02  6.610199657900E-02  2.553428640284E-01
C10 -8.831877439924E-02 -6.610199657900E-02 -2.553428640284E-01
C11  1.176104922342E-01  1.881957814585E-01  1.954014097114E-01
C12 -1.176104922342E-01 -1.881957814585E-01 -1.954014097114E-01
C13  5.986685853488E-02  9.771574207030E-02  9.780116482740E-02
C14 -5.986685853488E-02 -9.771574207030E-02 -9.780116482740E-02
C15  8.890013683207E-02  2.193098591854E-01  3.670769802883E-02
C16 -8.890013683207E-02 -2.193098591854E-01 -3.670769802883E-02
C17 -3.129352901394E-02 -1.282657632037E-01  5.992832110955E-02
C18  3.129352901394E-02  1.282657632037E-01 -5.992832110955E-02
C19 -5.971701659822E-02 -2.504942127821E-01  1.218670335809E-01
C20  5.971701659822E-02  2.504942127821E-01 -1.218670335809E-01
C21 -1.879978704489E-03 -1.598557207037E-01  2.175574458747E-01
C22  1.879978704489E-03  1.598557207037E-01 -2.175574458747E-01
H23  1.674941529821E-01  9.878011463659E-02  4.876777514909E-01
H24 -1.674941529821E-01 -9.878011463659E-02 -4.876777514909E-01
H25 -9.865649253073E-02 -4.527772651215E-01  2.517559110414E-01
H26  9.865649253073E-02  4.527772651215E-01 -2.517559110414E-01
H27  9.078295138444E-03 -2.920539906283E-01  4.214784796933E-01
H28 -9.078295138444E-03  2.920539906283E-01 -4.214784796933E-01
H29  2.109698174389E-01  3.270354912727E-01  3.819963197934E-01
H30 -2.109698174389E-01 -3.270354912727E-01 -3.819963197934E-01
H31  1.872440131189E-01  3.572040987069E-01  2.239091624271E-01
H32 -1.872440131189E-01 -3.572040987069E-01 -2.239091624271E-01
H33  1.576967570945E-01  3.887402972382E-01  6.500374357625E-02
H34 -1.576967570945E-01 -3.887402972382E-01 -6.500374357625E-02
H35 -1.280161197506E-01 -4.201619065532E-01  9.351571756865E-02
H36  1.280161197506E-01  4.201619065532E-01 -9.351571756865E-02
C37 -4.523804837254E-01 -4.331560397713E-01  4.031977171127E-01
C38  4.523804837254E-01  4.331560397713E-01 -4.031977171127E-01
C39  4.891786418417E-01 -3.150843131651E-01  3.309812753246E-01
C40 -4.891786418417E-01  3.150843131651E-01 -3.309812753246E-01
C41 -4.945122265489E-01 -4.164571579274E-01  2.432224122990E-01
C42  4.945122265489E-01  4.164571579274E-01 -2.432224122990E-01
C43  4.507111698604E-01 -2.982661226770E-01  1.693689589334E-01
C44 -4.507111698604E-01  2.982661226770E-01 -1.693689589334E-01
C45  4.733187383114E-01 -3.962559549561E-01  8.419809259912E-02
C46 -4.733187383114E-01  3.962559549561E-01 -8.419809259912E-02
C47  4.218066765107E-01 -2.760917155962E-01  1.004603113173E-02
C48 -4.218066765107E-01  2.760917155962E-01 -1.004603113173E-02
C49 -4.467380313763E-01  3.730604504879E-01  7.380556550323E-02
C50  4.467380313763E-01 -3.730604504879E-01 -7.380556550323E-02
C51 -3.939898522281E-01  2.535550071733E-01  1.491982758388E-01
C52  3.939898522281E-01 -2.535550071733E-01 -1.491982758388E-01
C53 -4.153797233087E-01  3.528049185289E-01  2.327872438572E-01
C54  4.153797233087E-01 -3.528049185289E-01 -2.327872438572E-01
C55 -3.567838676066E-01  2.354780949206E-01  3.106625220946E-01
C56  3.567838676066E-01 -2.354780949206E-01 -3.106625220946E-01
C57 -3.744802702922E-01  3.389810782571E-01  3.929750334122E-01
C58  3.744802702922E-01 -3.389810782571E-01 -3.929750334122E-01
H59 -4.643491896526E-01 -3.520809534461E-01  4.695975658945E-01
H60  4.643491896526E-01  3.520809534461E-01 -4.695975658945E-01
H61  4.302356014716E-01 -1.414755013872E-01  3.389844980146E-01
H62 -4.302356014716E-01  1.414755013872E-01 -3.389844980146E-01
H63  3.907327076068E-01 -1.250902337797E-01  1.773179805011E-01
H64 -3.907327076068E-01  1.250902337797E-01 -1.773179805011E-01
H65  3.608929430773E-01 -1.033685190500E-01  1.785710363957E-02
H66 -3.608929430773E-01  1.033685190500E-01 -1.785710363957E-02
H67 -3.326888223748E-01  8.094260594471E-02  1.415923556545E-01
H68  3.326888223748E-01 -8.094260594471E-02 -1.415923556545E-01
H69 -2.961267606613E-01  6.272933482500E-02  3.027558443564E-01
H70  2.961267606613E-01 -6.272933482500E-02 -3.027558443564E-01
H71 -3.288927698461E-01  2.481761386377E-01  4.517092972883E-01
H72  3.288927698461E-01 -2.481761386377E-01 -4.517092972883E-01


#===END

data_OPT_STEP_46

_symmetry_space_group_name_H-M 'P 1'
_cell_length_a      7.31597888
_cell_length_b      5.91863534
_cell_length_c     15.63128447
_cell_angle_alpha  101.925517
_cell_angle_beta  113.335390
_cell_angle_gamma   85.390043

loop_
_atom_site_label
_atom_site_fract_x
_atom_site_fract_y
_atom_site_fract_z
C1  1.208237160137E-01  2.889519080599E-02  4.123507911390E-01
C2 -1.208237160137E-01 -2.889519080599E-02 -4.123507911390E-01
C3 -2.918546242896E-02 -2.840850354803E-01  2.807026545085E-01
C4  2.918546242896E-02  2.840850354803E-01 -2.807026545085E-01
C5  3.107787576823E-02 -1.940079391969E-01  3.748247754253E-01
C6 -3.107787576823E-02  1.940079391969E-01 -3.748247754253E-01
C7  1.465219597169E-01  1.552294423130E-01  3.545568034251E-01
C8 -1.465219597169E-01 -1.552294423130E-01 -3.545568034251E-01
C9  8.832961244214E-02  6.606917997900E-02  2.553484453795E-01
C10 -8.832961244214E-02 -6.606917997900E-02 -2.553484453795E-01
C11  1.176328441679E-01  1.881602838412E-01  1.954096441720E-01
C12 -1.176328441679E-01 -1.881602838412E-01 -1.954096441720E-01
C13  5.988131184772E-02  9.769433386254E-02  9.780589754607E-02
C14 -5.988131184772E-02 -9.769433386254E-02 -9.780589754607E-02
C15  8.889885951948E-02  2.193075467186E-01  3.671327612148E-02
C16 -8.889885951948E-02 -2.193075467186E-01 -3.671327612148E-02
C17 -3.127359533390E-02 -1.282871249125E-01  5.992826583629E-02
C18  3.127359533390E-02  1.282871249125E-01 -5.992826583629E-02
C19 -5.970289058523E-02 -2.505209713713E-01  1.218647533797E-01
C20  5.970289058523E-02  2.505209713713E-01 -1.218647533797E-01
C21 -1.891407653505E-03 -1.598714837812E-01  2.175580040556E-01
C22  1.891407653505E-03  1.598714837812E-01 -2.175580040556E-01
H23  1.674764095282E-01  9.875580423239E-02  4.876865068601E-01
H24 -1.674764095282E-01 -9.875580423239E-02 -4.876865068601E-01
H25 -9.864751043027E-02 -4.528083391696E-01  2.517530103330E-01
H26  9.864751043027E-02  4.528083391696E-01 -2.517530103330E-01
H27  9.076124544927E-03 -2.920727422217E-01  4.214842427854E-01
H28 -9.076124544927E-03  2.920727422217E-01 -4.214842427854E-01
H29  2.109484279071E-01  3.270137970154E-01  3.820071439979E-01
H30 -2.109484279071E-01 -3.270137970154E-01 -3.820071439979E-01
H31  1.872706128328E-01  3.571630278820E-01  2.239217443632E-01
H32 -1.872706128328E-01 -3.571630278820E-01 -2.239217443632E-01
H33  1.577121804537E-01  3.887247630751E-01  6.501484663017E-02
H34 -1.577121804537E-01 -3.887247630751E-01 -6.501484663017E-02
H35 -1.279961399571E-01 -4.201906099327E-01  9.350971383735E-02
H36  1.279961399571E-01  4.201906099327E-01 -9.350971383735E-02
C37 -4.523562472464E-01 -4.332106890904E-01  4.032041317857E-01
C38  4.523562472464E-01  4.332106890904E-01 -4.032041317857E-01
C39  4.891989969551E-01 -3.151305279325E-01  3.309826559112E-01
C40 -4.891989969551E-01  3.151305279325E-01 -3.309826559112E-01
C41 -4.945050680232E-01 -4.164970291246E-01  2.432232522779E-01
C42  4.945050680232E-01  4.164970291246E-01 -2.432232522779E-01
C43  4.507294602397E-01 -2.982895742134E-01  1.693697567278E-01
C44 -4.507294602397E-01  2.982895742134E-01 -1.693697567278E-01
C45  4.733035069153E-01 -3.962826743388E-01  8.419389870885E-02
C46 -4.733035069153E-01  3.962826743388E-01 -8.419389870885E-02
C47  4.218142811715E-01 -2.760908831663E-01  1.004374563805E-02
C48 -4.218142811715E-01  2.760908831663E-01 -1.004374563805E-02
C49 -4.467518373528E-01  3.730402124128E-01  7.380552808064E-02
C50  4.467518373528E-01 -3.730402124128E-01 -7.380552808064E-02
C51 -3.939802613400E-01  2.535336415027E-01  1.492050310558E-01
C52  3.939802613400E-01 -2.535336415027E-01 -1.492050310558E-01
C53 -4.153692032205E-01  3.527732050730E-01  2.327938315391E-01
C54  4.153692032205E-01 -3.527732050730E-01 -2.327938315391E-01
C55 -3.567990744780E-01  2.354198913626E-01  3.106679272336E-01
C56  3.567990744780E-01 -2.354198913626E-01 -3.106679272336E-01
C57 -3.744841440368E-01  3.389142485705E-01  3.929813881841E-01
C58  3.744841440368E-01 -3.389142485705E-01 -3.929813881841E-01
H59 -4.643272148540E-01 -3.521442742447E-01  4.695975753324E-01
H60  4.643272148540E-01  3.521442742447E-01 -4.695975753324E-01
H61  4.302583405090E-01 -1.415255264451E-01  3.389816595492E-01
H62 -4.302583405090E-01  1.415255264451E-01 -3.389816595492E-01
H63  3.907724209817E-01 -1.251076789330E-01  1.773198823690E-01
H64 -3.907724209817E-01  1.251076789330E-01 -1.773198823690E-01
H65  3.608909403004E-01 -1.033787822670E-01  1.785065851662E-02
H66 -3.608909403004E-01  1.033787822670E-01 -1.785065851662E-02
H67 -3.326645675139E-01  8.093530740382E-02  1.416042434874E-01
H68  3.326645675139E-01 -8.093530740382E-02 -1.416042434874E-01
H69 -2.961609561248E-01  6.266438166991E-02  3.027613432478E-01
H70  2.961609561248E-01 -6.266438166991E-02 -3.027613432478E-01
H71 -3.289011199200E-01  2.480962581483E-01  4.517163228411E-01
H72  3.289011199200E-01 -2.480962581483E-01 -4.517163228411E-01


#===END

data_OPT_STEP_47

_symmetry_space_group_name_H-M 'P 1'
_cell_length_a      7.31615455
_cell_length_b      5.91902217
_cell_length_c     15.63148536
_cell_angle_alpha  101.922896
_cell_angle_beta  113.353900
_cell_angle_gamma   85.385992

loop_
_atom_site_label
_atom_site_fract_x
_atom_site_fract_y
_atom_site_fract_z
C1  1.208649642347E-01  2.878688317615E-02  4.123613641430E-01
C2 -1.208649642347E-01 -2.878688317615E-02 -4.123613641430E-01
C3 -2.916099650279E-02 -2.841493501159E-01  2.806887104355E-01
C4  2.916099650279E-02  2.841493501159E-01 -2.806887104355E-01
C5  3.109498645340E-02 -1.940870341915E-01  3.748190171876E-01
C6 -3.109498645340E-02  1.940870341915E-01 -3.748190171876E-01
C7  1.465639970642E-01  1.551244461128E-01  3.545740881678E-01
C8 -1.465639970642E-01 -1.551244461128E-01 -3.545740881678E-01
C9  8.835528462960E-02  6.599615249931E-02  2.553577149558E-01
C10 -8.835528462960E-02 -6.599615249931E-02 -2.553577149558E-01
C11  1.176541342958E-01  1.881014127438E-01  1.954272549771E-01
C12 -1.176541342958E-01 -1.881014127438E-01 -1.954272549771E-01
C13  5.990702412874E-02  9.765398043973E-02  9.781566642452E-02
C14 -5.990702412874E-02 -9.765398043973E-02 -9.781566642452E-02
C15  8.890211091411E-02  2.192937082445E-01  3.672972338153E-02
C16 -8.890211091411E-02 -2.192937082445E-01 -3.672972338153E-02
C17 -3.126384757123E-02 -1.283044725525E-01  5.992085055642E-02
C18  3.126384757123E-02  1.283044725525E-01 -5.992085055642E-02
C19 -5.969190647270E-02 -2.505471380505E-01  1.218496082048E-01
C20  5.969190647270E-02  2.505471380505E-01 -1.218496082048E-01
C21 -1.863444738457E-03 -1.599317313547E-01  2.175515108056E-01
C22  1.863444738457E-03  1.599317313547E-01 -2.175515108056E-01
H23  1.674852599878E-01  9.865660786802E-02  4.877014078998E-01
H24 -1.674852599878E-01 -9.865660786802E-02 -4.877014078998E-01
H25 -9.868528026950E-02 -4.528211967560E-01  2.517221640259E-01
H26  9.868528026950E-02  4.528211967560E-01 -2.517221640259E-01
H27  9.102771159760E-03 -2.921574296691E-01  4.214753203247E-01
H28 -9.102771159760E-03  2.921574296691E-01 -4.214753203247E-01
H29  2.109786962140E-01  3.269073385359E-01  3.820348018549E-01
H30 -2.109786962140E-01 -3.269073385359E-01 -3.820348018549E-01
H31  1.872549300447E-01  3.571214254185E-01  2.239515839277E-01
H32 -1.872549300447E-01 -3.571214254185E-01 -2.239515839277E-01
H33  1.577414748651E-01  3.886825277566E-01  6.504580711635E-02
H34 -1.577414748651E-01 -3.886825277566E-01 -6.504580711635E-02
H35 -1.280362327322E-01 -4.201733536730E-01  9.347854610890E-02
H36  1.280362327322E-01  4.201733536730E-01 -9.347854610890E-02
C37 -4.523649381035E-01 -4.332667382273E-01  4.032001141123E-01
C38  4.523649381035E-01  4.332667382273E-01 -4.032001141123E-01
C39  4.892216883547E-01 -3.151653821745E-01  3.309768424380E-01
C40 -4.892216883547E-01  3.151653821745E-01 -3.309768424380E-01
C41 -4.944713175325E-01 -4.165124380648E-01  2.432245065083E-01
C42  4.944713175325E-01  4.165124380648E-01 -2.432245065083E-01
C43  4.507433653431E-01 -2.983143731945E-01  1.693608994701E-01
C44 -4.507433653431E-01  2.983143731945E-01 -1.693608994701E-01
C45  4.733188590805E-01 -3.962900670008E-01  8.419095931051E-02
C46 -4.733188590805E-01  3.962900670008E-01 -8.419095931051E-02
C47  4.218343995731E-01 -2.760905736068E-01  1.003587906068E-02
C48 -4.218343995731E-01  2.760905736068E-01 -1.003587906068E-02
C49 -4.467533895930E-01  3.730354431947E-01  7.381158982574E-02
C50  4.467533895930E-01 -3.730354431947E-01 -7.381158982574E-02
C51 -3.939903487521E-01  2.535223003685E-01  1.492160460978E-01
C52  3.939903487521E-01 -2.535223003685E-01 -1.492160460978E-01
C53 -4.153390685159E-01  3.527669253311E-01  2.328069271547E-01
C54  4.153390685159E-01 -3.527669253311E-01 -2.328069271547E-01
C55 -3.568161489621E-01  2.353853523191E-01  3.106789081734E-01
C56  3.568161489621E-01 -2.353853523191E-01 -3.106789081734E-01
C57 -3.745140595902E-01  3.388563749961E-01  3.929861765429E-01
C58  3.745140595902E-01 -3.388563749961E-01 -3.929861765429E-01
H59 -4.643556279131E-01 -3.522201363893E-01  4.695863503863E-01
H60  4.643556279131E-01  3.522201363893E-01 -4.695863503863E-01
H61  4.302807917568E-01 -1.415696241306E-01  3.389672610130E-01
H62 -4.302807917568E-01  1.415696241306E-01 -3.389672610130E-01
H63  3.907572510068E-01 -1.251568531594E-01  1.772969174393E-01
H64 -3.907572510068E-01  1.251568531594E-01 -1.772969174393E-01
H65  3.609116153173E-01 -1.033876201423E-01  1.783423364790E-02
H66 -3.609116153173E-01  1.033876201423E-01 -1.783423364790E-02
H67 -3.327069018669E-01  8.091357403957E-02  1.416183555284E-01
H68  3.327069018669E-01 -8.091357403957E-02 -1.416183555284E-01
H69 -2.961811448150E-01  6.263660755320E-02  3.027810424314E-01
H70  2.961811448150E-01 -6.263660755320E-02 -3.027810424314E-01
H71 -3.289403090861E-01  2.480312557445E-01  4.517250792540E-01
H72  3.289403090861E-01 -2.480312557445E-01 -4.517250792540E-01


#===END

data_OPT_STEP_48

_symmetry_space_group_name_H-M 'P 1'
_cell_length_a      7.31642595
_cell_length_b      5.91936422
_cell_length_c     15.63179983
_cell_angle_alpha  101.921179
_cell_angle_beta  113.372872
_cell_angle_gamma   85.383817

loop_
_atom_site_label
_atom_site_fract_x
_atom_site_fract_y
_atom_site_fract_z
C1  1.208796592730E-01  2.870819162048E-02  4.123685728413E-01
C2 -1.208796592730E-01 -2.870819162048E-02 -4.123685728413E-01
C3 -2.915674787261E-02 -2.841985275602E-01  2.806684323942E-01
C4  2.915674787261E-02  2.841985275602E-01 -2.806684323942E-01
C5  3.111366317716E-02 -1.941648902674E-01  3.748080372023E-01
C6 -3.111366317716E-02  1.941648902674E-01 -3.748080372023E-01
C7  1.465730062925E-01  1.550587012500E-01  3.545895118363E-01
C8 -1.465730062925E-01 -1.550587012500E-01 -3.545895118363E-01
C9  8.837507897367E-02  6.593988474347E-02  2.553652017132E-01
C10 -8.837507897367E-02 -6.593988474347E-02 -2.553652017132E-01
C11  1.177047400089E-01  1.880330709423E-01  1.954461194068E-01
C12 -1.177047400089E-01 -1.880330709423E-01 -1.954461194068E-01
C13  5.993846923526E-02  9.761602592086E-02  9.782581203954E-02
C14 -5.993846923526E-02 -9.761602592086E-02 -9.782581203954E-02
C15  8.892600825330E-02  2.192705121769E-01  3.674865303978E-02
C16 -8.892600825330E-02 -2.192705121769E-01 -3.674865303978E-02
C17 -3.124321929236E-02 -1.283282105514E-01  5.991144608084E-02
C18  3.124321929236E-02  1.283282105514E-01 -5.991144608084E-02
C19 -5.968242439451E-02 -2.505715210059E-01  1.218294766889E-01
C20  5.968242439451E-02  2.505715210059E-01 -1.218294766889E-01
C21 -1.852147141097E-03 -1.599752784702E-01  2.175401620288E-01
C22  1.852147141097E-03  1.599752784702E-01 -2.175401620288E-01
H23  1.674976116033E-01  9.856977341722E-02  4.877151407316E-01
H24 -1.674976116033E-01 -9.856977341722E-02 -4.877151407316E-01
H25 -9.864103620764E-02 -4.528912466231E-01  2.516911605106E-01
H26  9.864103620764E-02  4.528912466231E-01 -2.516911605106E-01
H27  9.123233501126E-03 -2.922463607911E-01  4.214581940145E-01
H28 -9.123233501126E-03  2.922463607911E-01 -4.214581940145E-01
H29  2.110065414828E-01  3.268222852776E-01  3.820629184011E-01
H30 -2.110065414828E-01 -3.268222852776E-01 -3.820629184011E-01
H31  1.873207247176E-01  3.570388628366E-01  2.239866440836E-01
H32 -1.873207247176E-01 -3.570388628366E-01 -2.239866440836E-01
H33  1.577776887873E-01  3.886455435788E-01  6.508024232597E-02
H34 -1.577776887873E-01 -3.886455435788E-01 -6.508024232597E-02
H35 -1.280063601734E-01 -4.202053465861E-01  9.344566058519E-02
H36  1.280063601734E-01  4.202053465861E-01 -9.344566058519E-02
C37 -4.523953677015E-01 -4.333213696752E-01  4.031910805621E-01
C38  4.523953677015E-01  4.333213696752E-01 -4.031910805621E-01
C39  4.892273537110E-01 -3.152028335732E-01  3.309681963193E-01
C40 -4.892273537110E-01  3.152028335732E-01 -3.309681963193E-01
C41 -4.944602235284E-01 -4.165324729812E-01  2.432213617839E-01
C42  4.944602235284E-01  4.165324729812E-01 -2.432213617839E-01
C43  4.507769818853E-01 -2.983209747681E-01  1.693547514622E-01
C44 -4.507769818853E-01  2.983209747681E-01 -1.693547514622E-01
C45  4.733396950081E-01 -3.962914962870E-01  8.418832457265E-02
C46 -4.733396950081E-01  3.962914962870E-01 -8.418832457265E-02
C47  4.218357322373E-01 -2.761072360817E-01  1.002366307221E-02
C48 -4.218357322373E-01  2.761072360817E-01 -1.002366307221E-02
C49 -4.467434417081E-01  3.730430351969E-01  7.381972169315E-02
C50  4.467434417081E-01 -3.730430351969E-01 -7.381972169315E-02
C51 -3.939725616608E-01  2.535347894261E-01  1.492315507394E-01
C52  3.939725616608E-01 -2.535347894261E-01 -1.492315507394E-01
C53 -4.153481959958E-01  3.527500409816E-01  2.328124358631E-01
C54  4.153481959958E-01 -3.527500409816E-01 -2.328124358631E-01
C55 -3.568185070401E-01  2.353754074300E-01  3.106922586045E-01
C56  3.568185070401E-01 -2.353754074300E-01 -3.106922586045E-01
C57 -3.745424853924E-01  3.388210033351E-01  3.929903311554E-01
C58  3.745424853924E-01 -3.388210033351E-01 -3.929903311554E-01
H59 -4.643948953491E-01 -3.522888378123E-01  4.695760872028E-01
H60  4.643948953491E-01  3.522888378123E-01 -4.695760872028E-01
H61  4.303069674960E-01 -1.416063420009E-01  3.389555012457E-01
H62 -4.303069674960E-01  1.416063420009E-01 -3.389555012457E-01
H63  3.908065385485E-01 -1.251651387769E-01  1.772842389953E-01
H64 -3.908065385485E-01  1.251651387769E-01 -1.772842389953E-01
H65  3.609529869764E-01 -1.033922853330E-01  1.781959043981E-02
H66 -3.609529869764E-01  1.033922853330E-01 -1.781959043981E-02
H67 -3.326758369450E-01  8.094434952071E-02  1.416464913784E-01
H68  3.326758369450E-01 -8.094434952071E-02 -1.416464913784E-01
H69 -2.962009164434E-01  6.262656383823E-02  3.028007020914E-01
H70  2.962009164434E-01 -6.262656383823E-02 -3.028007020914E-01
H71 -3.289911334171E-01  2.479908481271E-01  4.517324996925E-01
H72  3.289911334171E-01 -2.479908481271E-01 -4.517324996925E-01


#===END

data_OPT_STEP_49

_symmetry_space_group_name_H-M 'P 1'
_cell_length_a      7.31622828
_cell_length_b      5.91908954
_cell_length_c     15.63145259
_cell_angle_alpha  101.921933
_cell_angle_beta  113.358176
_cell_angle_gamma   85.385842

loop_
_atom_site_label
_atom_site_fract_x
_atom_site_fract_y
_atom_site_fract_z
C1  1.208707885576E-01  2.877369279085E-02  4.123659205457E-01
C2 -1.208707885576E-01 -2.877369279085E-02 -4.123659205457E-01
C3 -2.916163035595E-02 -2.841530385861E-01  2.806878737757E-01
C4  2.916163035595E-02  2.841530385861E-01 -2.806878737757E-01
C5  3.110571526853E-02 -1.941028029681E-01  3.748207726861E-01
C6 -3.110571526853E-02  1.941028029681E-01 -3.748207726861E-01
C7  1.465650627425E-01  1.551167491589E-01  3.545794743341E-01
C8 -1.465650627425E-01 -1.551167491589E-01 -3.545794743341E-01
C9  8.835881133025E-02  6.598982994132E-02  2.553608058433E-01
C10 -8.835881133025E-02 -6.598982994132E-02 -2.553608058433E-01
C11  1.176711549361E-01  1.880846711672E-01  1.954318660319E-01
C12 -1.176711549361E-01 -1.880846711672E-01 -1.954318660319E-01
C13  5.991482779239E-02  9.764677029134E-02  9.781824643485E-02
C14 -5.991482779239E-02 -9.764677029134E-02 -9.781824643485E-02
C15  8.890763315834E-02  2.192876412045E-01  3.673254384124E-02
C16 -8.890763315834E-02 -2.192876412045E-01 -3.673254384124E-02
C17 -3.125435277765E-02 -1.283109778309E-01  5.991983524341E-02
C18  3.125435277765E-02  1.283109778309E-01 -5.991983524341E-02
C19 -5.968657199882E-02 -2.505504012794E-01  1.218474329748E-01
C20  5.968657199882E-02  2.505504012794E-01 -1.218474329748E-01
C21 -1.860718003976E-03 -1.599363496974E-01  2.175512998390E-01
C22  1.860718003976E-03  1.599363496974E-01 -2.175512998390E-01
H23  1.674911792527E-01  9.864209135321E-02  4.877075082168E-01
H24 -1.674911792527E-01 -9.864209135321E-02 -4.877075082168E-01
H25 -9.865278233800E-02 -4.528459233156E-01  2.517213816789E-01
H26  9.865278233800E-02  4.528459233156E-01 -2.517213816789E-01
H27  9.121357063417E-03 -2.921811237431E-01  4.214773857971E-01
H28 -9.121357063417E-03  2.921811237431E-01 -4.214773857971E-01
H29  2.109909822869E-01  3.268903906343E-01  3.820431449776E-01
H30 -2.109909822869E-01 -3.268903906343E-01 -3.820431449776E-01
H31  1.872796411439E-01  3.570981778637E-01  2.239592136418E-01
H32 -1.872796411439E-01 -3.570981778637E-01 -2.239592136418E-01
H33  1.577460562956E-01  3.886752890712E-01  6.505124851199E-02
H34 -1.577460562956E-01 -3.886752890712E-01 -6.505124851199E-02
H35 -1.280157471058E-01 -4.201851227630E-01  9.347495490972E-02
H36  1.280157471058E-01  4.201851227630E-01 -9.347495490972E-02
C37 -4.523746018719E-01 -4.332971698143E-01  4.031976424792E-01
C38  4.523746018719E-01  4.332971698143E-01 -4.031976424792E-01
C39  4.892243066037E-01 -3.151866509195E-01  3.309759492863E-01
C40 -4.892243066037E-01  3.151866509195E-01 -3.309759492863E-01
C41 -4.944700587334E-01 -4.165267006767E-01  2.432238974778E-01
C42  4.944700587334E-01  4.165267006767E-01 -2.432238974778E-01
C43  4.507549099779E-01 -2.983192166830E-01  1.693605141307E-01
C44 -4.507549099779E-01  2.983192166830E-01 -1.693605141307E-01
C45  4.733255765240E-01 -3.962919238682E-01  8.419071249432E-02
C46 -4.733255765240E-01  3.962919238682E-01 -8.419071249432E-02
C47  4.218294358476E-01 -2.760993893043E-01  1.003226374633E-02
C48 -4.218294358476E-01  2.760993893043E-01 -1.003226374633E-02
C49 -4.467480145343E-01  3.730372723721E-01  7.381382224049E-02
C50  4.467480145343E-01 -3.730372723721E-01 -7.381382224049E-02
C51 -3.939807287040E-01  2.535242708755E-01  1.492203077665E-01
C52  3.939807287040E-01 -2.535242708755E-01 -1.492203077665E-01
C53 -4.153462115128E-01  3.527523598918E-01  2.328069981931E-01
C54  4.153462115128E-01 -3.527523598918E-01 -2.328069981931E-01
C55 -3.568099055732E-01  2.353763516060E-01  3.106829626234E-01
C56  3.568099055732E-01 -2.353763516060E-01 -3.106829626234E-01
C57 -3.745187390693E-01  3.388354961777E-01  3.929872943477E-01
C58  3.745187390693E-01 -3.388354961777E-01 -3.929872943477E-01
H59 -4.643632918493E-01 -3.522578060803E-01  4.695859297462E-01
H60  4.643632918493E-01  3.522578060803E-01 -4.695859297462E-01
H61  4.302923580643E-01 -1.415884966930E-01  3.389676291783E-01
H62 -4.302923580643E-01  1.415884966930E-01 -3.389676291783E-01
H63  3.907763568585E-01 -1.251601579739E-01  1.772960197234E-01
H64 -3.907763568585E-01  1.251601579739E-01 -1.772960197234E-01
H65  3.609244705192E-01 -1.033890558888E-01  1.783186607928E-02
H66 -3.609244705192E-01  1.033890558888E-01 -1.783186607928E-02
H67 -3.326886665568E-01  8.092409718019E-02  1.416263938375E-01
H68  3.326886665568E-01 -8.092409718019E-02 -1.416263938375E-01
H69 -2.961817990246E-01  6.262684743843E-02  3.027855395153E-01
H70  2.961817990246E-01 -6.262684743843E-02 -3.027855395153E-01
H71 -3.289523901590E-01  2.480089237800E-01  4.517273417076E-01
H72  3.289523901590E-01 -2.480089237800E-01 -4.517273417076E-01


#===END

data_OPT_STEP_50

_symmetry_space_group_name_H-M 'P 1'
_cell_length_a      7.31624359
_cell_length_b      5.91909407
_cell_length_c     15.63144588
_cell_angle_alpha  101.921617
_cell_angle_beta  113.359028
_cell_angle_gamma   85.386005

loop_
_atom_site_label
_atom_site_fract_x
_atom_site_fract_y
_atom_site_fract_z
C1  1.208736104051E-01  2.877298286917E-02  4.123672727347E-01
C2 -1.208736104051E-01 -2.877298286917E-02 -4.123672727347E-01
C3 -2.916004304342E-02 -2.841531750833E-01  2.806890220437E-01
C4  2.916004304342E-02  2.841531750833E-01 -2.806890220437E-01
C5  3.111036745872E-02 -1.941046324701E-01  3.748223117810E-01
C6 -3.111036745872E-02  1.941046324701E-01 -3.748223117810E-01
C7  1.465665750077E-01  1.551167429054E-01  3.545807132291E-01
C8 -1.465665750077E-01 -1.551167429054E-01 -3.545807132291E-01
C9  8.835864412282E-02  6.599116407428E-02  2.553616107049E-01
C10 -8.835864412282E-02 -6.599116407428E-02 -2.553616107049E-01
C11  1.176669212486E-01  1.880883709316E-01  1.954322290984E-01
C12 -1.176669212486E-01 -1.880883709316E-01 -1.954322290984E-01
C13  5.990888970766E-02  9.765161600755E-02  9.781821070405E-02
C14 -5.990888970766E-02 -9.765161600755E-02 -9.781821070405E-02
C15  8.890911973428E-02  2.192866677701E-01  3.673288427534E-02
C16 -8.890911973428E-02 -2.192866677701E-01 -3.673288427534E-02
C17 -3.125959972073E-02 -1.283067967491E-01  5.991948625199E-02
C18  3.125959972073E-02  1.283067967491E-01 -5.991948625199E-02
C19 -5.969102390086E-02 -2.505466658009E-01  1.218473583506E-01
C20  5.969102390086E-02  2.505466658009E-01 -1.218473583506E-01
C21 -1.863973754540E-03 -1.599333192486E-01  2.175515988634E-01
C22  1.863973754540E-03  1.599333192486E-01 -2.175515988634E-01
H23  1.675024393188E-01  9.863589062465E-02  4.877093300934E-01
H24 -1.675024393188E-01 -9.863589062465E-02 -4.877093300934E-01
H25 -9.864944333243E-02 -4.528474724572E-01  2.517225313193E-01
H26  9.864944333243E-02  4.528474724572E-01 -2.517225313193E-01
H27  9.129178785005E-03 -2.921836570879E-01  4.214797744467E-01
H28 -9.129178785006E-03  2.921836570879E-01 -4.214797744467E-01
H29  2.109980925749E-01  3.268860919649E-01  3.820447948095E-01
H30 -2.109980925749E-01 -3.268860919649E-01 -3.820447948095E-01
H31  1.872829848217E-01  3.570964554105E-01  2.239601332893E-01
H32 -1.872829848217E-01 -3.570964554105E-01 -2.239601332893E-01
H33  1.577399622449E-01  3.886798813288E-01  6.505144726049E-02
H34 -1.577399622449E-01 -3.886798813288E-01 -6.505144726049E-02
H35 -1.280130797099E-01 -4.201863057193E-01  9.347506072195E-02
H36  1.280130797099E-01  4.201863057193E-01 -9.347506072195E-02
C37 -4.523741175506E-01 -4.333065097591E-01  4.031973211435E-01
C38  4.523741175506E-01  4.333065097591E-01 -4.031973211435E-01
C39  4.892203915131E-01 -3.151972012902E-01  3.309752619624E-01
C40 -4.892203915131E-01  3.151972012902E-01 -3.309752619624E-01
C41 -4.944749396254E-01 -4.165350277200E-01  2.432230103861E-01
C42  4.944749396254E-01  4.165350277200E-01 -2.432230103861E-01
C43  4.507525894779E-01 -2.983242663775E-01  1.693598006779E-01
C44 -4.507525894779E-01  2.983242663775E-01 -1.693598006779E-01
C45  4.733263258568E-01 -3.962932341066E-01  8.419067925857E-02
C46 -4.733263258568E-01  3.962932341066E-01 -8.419067925857E-02
C47  4.218326697117E-01 -2.760985384978E-01  1.003232674446E-02
C48 -4.218326697117E-01  2.760985384978E-01 -1.003232674446E-02
C49 -4.467485849343E-01  3.730359277281E-01  7.381405762454E-02
C50  4.467485849343E-01 -3.730359277281E-01 -7.381405762454E-02
C51 -3.939806182566E-01  2.535223506751E-01  1.492209059036E-01
C52  3.939806182566E-01 -2.535223506751E-01 -1.492209059036E-01
C53 -4.153496209283E-01  3.527461684495E-01  2.328066240159E-01
C54  4.153496209283E-01 -3.527461684495E-01 -2.328066240159E-01
C55 -3.568104310926E-01  2.353705807240E-01  3.106832249166E-01
C56  3.568104310926E-01 -2.353705807240E-01 -3.106832249166E-01
C57 -3.745151845173E-01  3.388297528720E-01  3.929877178601E-01
C58  3.745151845173E-01 -3.388297528720E-01 -3.929877178601E-01
H59 -4.643649889487E-01 -3.522729940021E-01  4.695855289313E-01
H60  4.643649889487E-01  3.522729940021E-01 -4.695855289313E-01
H61  4.302882658360E-01 -1.415996916896E-01  3.389670153141E-01
H62 -4.302882658360E-01  1.415996916896E-01 -3.389670153141E-01
H63  3.907831547398E-01 -1.251606533161E-01  1.772966923519E-01
H64 -3.907831547398E-01  1.251606533161E-01 -1.772966923519E-01
H65  3.609236907976E-01 -1.033907368356E-01  1.783084424225E-02
H66 -3.609236907976E-01  1.033907368356E-01 -1.783084424225E-02
H67 -3.326877709831E-01  8.092333559554E-02  1.416275007825E-01
H68  3.326877709831E-01 -8.092333559554E-02 -1.416275007825E-01
H69 -2.961760600755E-01  6.262586988015E-02  3.027869526811E-01
H70  2.961760600755E-01 -6.262586988015E-02 -3.027869526811E-01
H71 -3.289506852037E-01  2.480026314844E-01  4.517278301410E-01
H72  3.289506852037E-01 -2.480026314844E-01 -4.517278301410E-01


#===END

data_OPT_STEP_51

_symmetry_space_group_name_H-M 'P 1'
_cell_length_a      7.31624359
_cell_length_b      5.91909407
_cell_length_c     15.63144588
_cell_angle_alpha  101.921617
_cell_angle_beta  113.359028
_cell_angle_gamma   85.386005

loop_
_atom_site_label
_atom_site_fract_x
_atom_site_fract_y
_atom_site_fract_z
C1  1.208736104051E-01  2.877298286917E-02  4.123672727347E-01
C2 -1.208736104051E-01 -2.877298286917E-02 -4.123672727347E-01
C3 -2.916004304342E-02 -2.841531750833E-01  2.806890220437E-01
C4  2.916004304342E-02  2.841531750833E-01 -2.806890220437E-01
C5  3.111036745872E-02 -1.941046324701E-01  3.748223117810E-01
C6 -3.111036745872E-02  1.941046324701E-01 -3.748223117810E-01
C7  1.465665750077E-01  1.551167429054E-01  3.545807132291E-01
C8 -1.465665750077E-01 -1.551167429054E-01 -3.545807132291E-01
C9  8.835864412282E-02  6.599116407428E-02  2.553616107049E-01
C10 -8.835864412282E-02 -6.599116407428E-02 -2.553616107049E-01
C11  1.176669212486E-01  1.880883709316E-01  1.954322290984E-01
C12 -1.176669212486E-01 -1.880883709316E-01 -1.954322290984E-01
C13  5.990888970766E-02  9.765161600755E-02  9.781821070405E-02
C14 -5.990888970766E-02 -9.765161600755E-02 -9.781821070405E-02
C15  8.890911973428E-02  2.192866677701E-01  3.673288427534E-02
C16 -8.890911973428E-02 -2.192866677701E-01 -3.673288427534E-02
C17 -3.125959972073E-02 -1.283067967491E-01  5.991948625199E-02
C18  3.125959972073E-02  1.283067967491E-01 -5.991948625199E-02
C19 -5.969102390086E-02 -2.505466658009E-01  1.218473583506E-01
C20  5.969102390086E-02  2.505466658009E-01 -1.218473583506E-01
C21 -1.863973754540E-03 -1.599333192486E-01  2.175515988634E-01
C22  1.863973754540E-03  1.599333192486E-01 -2.175515988634E-01
H23  1.675024393188E-01  9.863589062465E-02  4.877093300934E-01
H24 -1.675024393188E-01 -9.863589062465E-02 -4.877093300934E-01
H25 -9.864944333243E-02 -4.528474724572E-01  2.517225313193E-01
H26  9.864944333243E-02  4.528474724572E-01 -2.517225313193E-01
H27  9.129178785005E-03 -2.921836570879E-01  4.214797744467E-01
H28 -9.129178785006E-03  2.921836570879E-01 -4.214797744467E-01
H29  2.109980925749E-01  3.268860919649E-01  3.820447948095E-01
H30 -2.109980925749E-01 -3.268860919649E-01 -3.820447948095E-01
H31  1.872829848217E-01  3.570964554105E-01  2.239601332893E-01
H32 -1.872829848217E-01 -3.570964554105E-01 -2.239601332893E-01
H33  1.577399622449E-01  3.886798813288E-01  6.505144726049E-02
H34 -1.577399622449E-01 -3.886798813288E-01 -6.505144726049E-02
H35 -1.280130797099E-01 -4.201863057193E-01  9.347506072195E-02
H36  1.280130797099E-01  4.201863057193E-01 -9.347506072195E-02
C37 -4.523741175506E-01 -4.333065097591E-01  4.031973211435E-01
C38  4.523741175506E-01  4.333065097591E-01 -4.031973211435E-01
C39  4.892203915131E-01 -3.151972012902E-01  3.309752619624E-01
C40 -4.892203915131E-01  3.151972012902E-01 -3.309752619624E-01
C41 -4.944749396254E-01 -4.165350277200E-01  2.432230103861E-01
C42  4.944749396254E-01  4.165350277200E-01 -2.432230103861E-01
C43  4.507525894779E-01 -2.983242663775E-01  1.693598006779E-01
C44 -4.507525894779E-01  2.983242663775E-01 -1.693598006779E-01
C45  4.733263258568E-01 -3.962932341066E-01  8.419067925857E-02
C46 -4.733263258568E-01  3.962932341066E-01 -8.419067925857E-02
C47  4.218326697117E-01 -2.760985384978E-01  1.003232674446E-02
C48 -4.218326697117E-01  2.760985384978E-01 -1.003232674446E-02
C49 -4.467485849343E-01  3.730359277281E-01  7.381405762454E-02
C50  4.467485849343E-01 -3.730359277281E-01 -7.381405762454E-02
C51 -3.939806182566E-01  2.535223506751E-01  1.492209059036E-01
C52  3.939806182566E-01 -2.535223506751E-01 -1.492209059036E-01
C53 -4.153496209283E-01  3.527461684495E-01  2.328066240159E-01
C54  4.153496209283E-01 -3.527461684495E-01 -2.328066240159E-01
C55 -3.568104310926E-01  2.353705807240E-01  3.106832249166E-01
C56  3.568104310926E-01 -2.353705807240E-01 -3.106832249166E-01
C57 -3.745151845173E-01  3.388297528720E-01  3.929877178601E-01
C58  3.745151845173E-01 -3.388297528720E-01 -3.929877178601E-01
H59 -4.643649889487E-01 -3.522729940021E-01  4.695855289313E-01
H60  4.643649889487E-01  3.522729940021E-01 -4.695855289313E-01
H61  4.302882658360E-01 -1.415996916896E-01  3.389670153141E-01
H62 -4.302882658360E-01  1.415996916896E-01 -3.389670153141E-01
H63  3.907831547398E-01 -1.251606533161E-01  1.772966923519E-01
H64 -3.907831547398E-01  1.251606533161E-01 -1.772966923519E-01
H65  3.609236907976E-01 -1.033907368356E-01  1.783084424225E-02
H66 -3.609236907976E-01  1.033907368356E-01 -1.783084424225E-02
H67 -3.326877709831E-01  8.092333559554E-02  1.416275007825E-01
H68  3.326877709831E-01 -8.092333559554E-02 -1.416275007825E-01
H69 -2.961760600755E-01  6.262586988015E-02  3.027869526811E-01
H70  2.961760600755E-01 -6.262586988015E-02 -3.027869526811E-01
H71 -3.289506852037E-01  2.480026314844E-01  4.517278301410E-01
H72  3.289506852037E-01 -2.480026314844E-01 -4.517278301410E-01


#===END
