###############################################################################
#
#                    CRYSTAL17 CIF FILE
#
###############################################################################

data_OPT_STEP_1

_symmetry_space_group_name_H-M 'P 1'
_cell_length_a      7.90000000
_cell_length_b      6.03000000
_cell_length_c     13.53000000
_cell_angle_alpha  100.300000
_cell_angle_beta  113.200000
_cell_angle_gamma   86.300000

loop_
_atom_site_label
_atom_site_fract_x
_atom_site_fract_y
_atom_site_fract_z
C1  1.194000000000E-01  3.310000000000E-02  3.890000000000E-01
C2 -1.194000000000E-01 -3.310000000000E-02 -3.890000000000E-01
C3  1.494000000000E-01  1.564000000000E-01  3.219000000000E-01
C4 -1.494000000000E-01 -1.564000000000E-01 -3.219000000000E-01
C5  8.110000000000E-02  7.240000000000E-02  2.040000000000E-01
C6 -8.110000000000E-02 -7.240000000000E-02 -2.040000000000E-01
C7  1.094000000000E-01  1.899000000000E-01  1.360000000000E-01
C8 -1.094000000000E-01 -1.899000000000E-01 -1.360000000000E-01
C9  4.670000000000E-02  1.089000000000E-01  2.110000000000E-02
C10 -4.670000000000E-02 -1.089000000000E-01 -2.110000000000E-02
C11  6.910000000000E-02  2.228000000000E-01 -5.160000000000E-02
C12 -6.910000000000E-02 -2.228000000000E-01  5.160000000000E-02
C13 -3.500000000000E-03 -1.405000000000E-01  1.637000000000E-01
C14  3.500000000000E-03  1.405000000000E-01 -1.637000000000E-01
C15 -3.780000000000E-02 -2.646000000000E-01  2.355000000000E-01
C16  3.780000000000E-02  2.646000000000E-01 -2.355000000000E-01
C17  2.670000000000E-02 -1.832000000000E-01  3.483000000000E-01
C18 -2.670000000000E-02  1.832000000000E-01 -3.483000000000E-01
H19  1.680000000000E-01  1.000000000000E-01  4.700000000000E-01
H20 -1.680000000000E-01 -1.000000000000E-01 -4.700000000000E-01
H21  2.120000000000E-01  3.170000000000E-01  3.490000000000E-01
H22 -2.120000000000E-01 -3.170000000000E-01 -3.490000000000E-01
H23  1.760000000000E-01  3.540000000000E-01  1.650000000000E-01
H24 -1.760000000000E-01 -3.540000000000E-01 -1.650000000000E-01
H25  1.340000000000E-01  3.880000000000E-01 -2.200000000000E-02
H26 -1.340000000000E-01 -3.880000000000E-01  2.200000000000E-02
H27 -9.500000000000E-02 -4.250000000000E-01  2.020000000000E-01
H28  9.500000000000E-02  4.250000000000E-01 -2.020000000000E-01
H29  1.100000000000E-02 -2.790000000000E-01  4.000000000000E-01
H30 -1.100000000000E-02  2.790000000000E-01 -4.000000000000E-01
C31 -4.572000000000E-01 -4.320000000000E-01  3.787000000000E-01
C32  4.572000000000E-01  4.320000000000E-01 -3.787000000000E-01
C33  4.799000000000E-01 -3.139000000000E-01  2.930000000000E-01
C34 -4.799000000000E-01  3.139000000000E-01 -2.930000000000E-01
C35  4.997000000000E-01 -4.136000000000E-01  1.947000000000E-01
C36 -4.997000000000E-01  4.136000000000E-01 -1.947000000000E-01
C37  4.425000000000E-01 -2.993000000000E-01  1.048000000000E-01
C38 -4.425000000000E-01  2.993000000000E-01 -1.048000000000E-01
C39  4.638000000000E-01 -3.860000000000E-01  5.200000000000E-03
C40 -4.638000000000E-01  3.860000000000E-01 -5.200000000000E-03
C41  4.052000000000E-01 -2.758000000000E-01 -8.320000000000E-02
C42 -4.052000000000E-01  2.758000000000E-01  8.320000000000E-02
C43 -4.242000000000E-01  3.649000000000E-01  1.811000000000E-01
C44  4.242000000000E-01 -3.649000000000E-01 -1.811000000000E-01
C45 -3.694000000000E-01  2.568000000000E-01  2.685000000000E-01
C46  3.694000000000E-01 -2.568000000000E-01 -2.685000000000E-01
C47 -3.852000000000E-01  3.374000000000E-01  3.645000000000E-01
C48  3.852000000000E-01 -3.374000000000E-01 -3.645000000000E-01
H49 -4.690000000000E-01 -3.500000000000E-01  4.540000000000E-01
H50  4.690000000000E-01  3.500000000000E-01 -4.540000000000E-01
H51  4.250000000000E-01 -1.480000000000E-01  3.050000000000E-01
H52 -4.250000000000E-01  1.480000000000E-01 -3.050000000000E-01
H53  3.860000000000E-01 -1.300000000000E-01  1.140000000000E-01
H54 -3.860000000000E-01  1.300000000000E-01 -1.140000000000E-01
H55  3.510000000000E-01 -1.130000000000E-01 -7.200000000000E-02
H56 -3.510000000000E-01  1.130000000000E-01  7.200000000000E-02
H57 -3.150000000000E-01  8.900000000000E-02  2.530000000000E-01
H58  3.150000000000E-01 -8.900000000000E-02 -2.530000000000E-01
H59 -3.450000000000E-01  2.460000000000E-01  4.250000000000E-01
H60  3.450000000000E-01 -2.460000000000E-01 -4.250000000000E-01


#===END

data_OPT_STEP_2

_symmetry_space_group_name_H-M 'P 1'
_cell_length_a      7.90000000
_cell_length_b      6.03000000
_cell_length_c     13.53000000
_cell_angle_alpha  100.300000
_cell_angle_beta  113.200000
_cell_angle_gamma   86.300000

loop_
_atom_site_label
_atom_site_fract_x
_atom_site_fract_y
_atom_site_fract_z
C1  1.194000000000E-01  3.310000000000E-02  3.890000000000E-01
C2 -1.194000000000E-01 -3.310000000000E-02 -3.890000000000E-01
C3  1.494000000000E-01  1.564000000000E-01  3.219000000000E-01
C4 -1.494000000000E-01 -1.564000000000E-01 -3.219000000000E-01
C5  8.110000000000E-02  7.240000000000E-02  2.040000000000E-01
C6 -8.110000000000E-02 -7.240000000000E-02 -2.040000000000E-01
C7  1.094000000000E-01  1.899000000000E-01  1.360000000000E-01
C8 -1.094000000000E-01 -1.899000000000E-01 -1.360000000000E-01
C9  4.670000000000E-02  1.089000000000E-01  2.110000000000E-02
C10 -4.670000000000E-02 -1.089000000000E-01 -2.110000000000E-02
C11  6.910000000000E-02  2.228000000000E-01 -5.160000000000E-02
C12 -6.910000000000E-02 -2.228000000000E-01  5.160000000000E-02
C13 -3.500000000000E-03 -1.405000000000E-01  1.637000000000E-01
C14  3.500000000000E-03  1.405000000000E-01 -1.637000000000E-01
C15 -3.780000000000E-02 -2.646000000000E-01  2.355000000000E-01
C16  3.780000000000E-02  2.646000000000E-01 -2.355000000000E-01
C17  2.670000000000E-02 -1.832000000000E-01  3.483000000000E-01
C18 -2.670000000000E-02  1.832000000000E-01 -3.483000000000E-01
H19  1.680000000000E-01  1.000000000000E-01  4.700000000000E-01
H20 -1.680000000000E-01 -1.000000000000E-01 -4.700000000000E-01
H21  2.120000000000E-01  3.170000000000E-01  3.490000000000E-01
H22 -2.120000000000E-01 -3.170000000000E-01 -3.490000000000E-01
H23  1.760000000000E-01  3.540000000000E-01  1.650000000000E-01
H24 -1.760000000000E-01 -3.540000000000E-01 -1.650000000000E-01
H25  1.340000000000E-01  3.880000000000E-01 -2.200000000000E-02
H26 -1.340000000000E-01 -3.880000000000E-01  2.200000000000E-02
H27 -9.500000000000E-02 -4.250000000000E-01  2.020000000000E-01
H28  9.500000000000E-02  4.250000000000E-01 -2.020000000000E-01
H29  1.100000000000E-02 -2.790000000000E-01  4.000000000000E-01
H30 -1.100000000000E-02  2.790000000000E-01 -4.000000000000E-01
C31 -4.572000000000E-01 -4.320000000000E-01  3.787000000000E-01
C32  4.572000000000E-01  4.320000000000E-01 -3.787000000000E-01
C33  4.799000000000E-01 -3.139000000000E-01  2.930000000000E-01
C34 -4.799000000000E-01  3.139000000000E-01 -2.930000000000E-01
C35  4.997000000000E-01 -4.136000000000E-01  1.947000000000E-01
C36 -4.997000000000E-01  4.136000000000E-01 -1.947000000000E-01
C37  4.425000000000E-01 -2.993000000000E-01  1.048000000000E-01
C38 -4.425000000000E-01  2.993000000000E-01 -1.048000000000E-01
C39  4.638000000000E-01 -3.860000000000E-01  5.200000000000E-03
C40 -4.638000000000E-01  3.860000000000E-01 -5.200000000000E-03
C41  4.052000000000E-01 -2.758000000000E-01 -8.320000000000E-02
C42 -4.052000000000E-01  2.758000000000E-01  8.320000000000E-02
C43 -4.242000000000E-01  3.649000000000E-01  1.811000000000E-01
C44  4.242000000000E-01 -3.649000000000E-01 -1.811000000000E-01
C45 -3.694000000000E-01  2.568000000000E-01  2.685000000000E-01
C46  3.694000000000E-01 -2.568000000000E-01 -2.685000000000E-01
C47 -3.852000000000E-01  3.374000000000E-01  3.645000000000E-01
C48  3.852000000000E-01 -3.374000000000E-01 -3.645000000000E-01
H49 -4.690000000000E-01 -3.500000000000E-01  4.540000000000E-01
H50  4.690000000000E-01  3.500000000000E-01 -4.540000000000E-01
H51  4.250000000000E-01 -1.480000000000E-01  3.050000000000E-01
H52 -4.250000000000E-01  1.480000000000E-01 -3.050000000000E-01
H53  3.860000000000E-01 -1.300000000000E-01  1.140000000000E-01
H54 -3.860000000000E-01  1.300000000000E-01 -1.140000000000E-01
H55  3.510000000000E-01 -1.130000000000E-01 -7.200000000000E-02
H56 -3.510000000000E-01  1.130000000000E-01  7.200000000000E-02
H57 -3.150000000000E-01  8.900000000000E-02  2.530000000000E-01
H58  3.150000000000E-01 -8.900000000000E-02 -2.530000000000E-01
H59 -3.450000000000E-01  2.460000000000E-01  4.250000000000E-01
H60  3.450000000000E-01 -2.460000000000E-01 -4.250000000000E-01


#===END

data_OPT_STEP_3

_symmetry_space_group_name_H-M 'P 1'
_cell_length_a      7.84895826
_cell_length_b      6.02204061
_cell_length_c     13.49976633
_cell_angle_alpha  100.485301
_cell_angle_beta  113.193395
_cell_angle_gamma   86.173217

loop_
_atom_site_label
_atom_site_fract_x
_atom_site_fract_y
_atom_site_fract_z
C1  1.194874686739E-01  3.312788516210E-02  3.886287515144E-01
C2 -1.194874686739E-01 -3.312788516210E-02 -3.886287515144E-01
C3  1.454344465930E-01  1.583161389398E-01  3.211722852292E-01
C4 -1.454344465930E-01 -1.583161389398E-01 -3.211722852292E-01
C5  8.392843723127E-02  7.153107770573E-02  2.046929644896E-01
C6 -8.392843723127E-02 -7.153107770573E-02 -2.046929644896E-01
C7  1.094949434737E-01  1.913489454859E-01  1.351282176154E-01
C8 -1.094949434737E-01 -1.913489454859E-01 -1.351282176154E-01
C9  4.584819915167E-02  1.096570252793E-01  2.089531451689E-02
C10 -4.584819915167E-02 -1.096570252793E-01 -2.089531451689E-02
C11  6.906811590598E-02  2.260970632834E-01 -5.204543825078E-02
C12 -6.906811590598E-02 -2.260970632834E-01  5.204543825078E-02
C13 -9.949613867692E-03 -1.389193990673E-01  1.634294929024E-01
C14  9.949613867692E-03  1.389193990673E-01 -1.634294929024E-01
C15 -3.384687089541E-02 -2.665678330744E-01  2.369574746217E-01
C16  3.384687089541E-02  2.665678330744E-01 -2.369574746217E-01
C17  2.835974787073E-02 -1.829438595701E-01  3.477321422490E-01
C18 -2.835974787073E-02  1.829438595701E-01 -3.477321422490E-01
H19  1.680723689532E-01  1.005507031981E-01  4.720555730784E-01
H20 -1.680723689532E-01 -1.005507031981E-01 -4.720555730784E-01
H21  2.101591017391E-01  3.204731282340E-01  3.493626902602E-01
H22 -2.101591017391E-01 -3.204731282340E-01 -3.493626902602E-01
H23  1.765907127695E-01  3.554690447344E-01  1.644943375013E-01
H24 -1.765907127695E-01 -3.554690447344E-01 -1.644943375013E-01
H25  1.375115491457E-01  3.898502842033E-01 -2.193327851292E-02
H26 -1.375115491457E-01 -3.898502842033E-01  2.193327851292E-02
H27 -9.370953869740E-02 -4.291487064217E-01  2.035011726394E-01
H28  9.370953869740E-02  4.291487064217E-01 -2.035011726394E-01
H29  8.183568338085E-03 -2.773464094075E-01  4.005972174412E-01
H30 -8.183568338085E-03  2.773464094075E-01 -4.005972174412E-01
C31 -4.591303906945E-01 -4.334828265582E-01  3.779052936235E-01
C32  4.591303906945E-01  4.334828265582E-01 -3.779052936235E-01
C33  4.828864966517E-01 -3.140105810780E-01  2.930889746403E-01
C34 -4.828864966517E-01  3.140105810780E-01 -2.930889746403E-01
C35  4.985106988474E-01 -4.132399274376E-01  1.930986764531E-01
C36 -4.985106988474E-01  4.132399274376E-01 -1.930986764531E-01
C37  4.428227892464E-01 -2.972501997659E-01  1.046750189905E-01
C38 -4.428227892464E-01  2.972501997659E-01 -1.046750189905E-01
C39  4.582660190162E-01 -3.887156103266E-01  4.315657128921E-03
C40 -4.582660190162E-01  3.887156103266E-01 -4.315657128921E-03
C41  4.060750752048E-01 -2.729173512581E-01 -8.286818463291E-02
C42 -4.060750752048E-01  2.729173512581E-01  8.286818463291E-02
C43 -4.229688993561E-01  3.652980576267E-01  1.808976365090E-01
C44  4.229688993561E-01 -3.652980576267E-01 -1.808976365090E-01
C45 -3.702926337755E-01  2.526299179330E-01  2.692211958533E-01
C46  3.702926337755E-01 -2.526299179330E-01 -2.692211958533E-01
C47 -3.824942058240E-01  3.412366673169E-01  3.660691571888E-01
C48  3.824942058240E-01 -3.412366673169E-01 -3.660691571888E-01
H49 -4.697257598330E-01 -3.512769992387E-01  4.538733095741E-01
H50  4.697257598330E-01  3.512769992387E-01 -4.538733095741E-01
H51  4.257743395210E-01 -1.477067935530E-01  3.041136928594E-01
H52 -4.257743395210E-01  1.477067935530E-01 -3.041136928594E-01
H53  3.844888145527E-01 -1.287045215691E-01  1.134719983745E-01
H54 -3.844888145527E-01  1.287045215691E-01 -1.134719983745E-01
H55  3.489377729626E-01 -1.083927411237E-01 -7.298881096625E-02
H56 -3.489377729626E-01  1.083927411237E-01  7.298881096625E-02
H57 -3.132862055066E-01  8.456042493489E-02  2.564757299886E-01
H58  3.132862055066E-01 -8.456042493489E-02 -2.564757299886E-01
H59 -3.405285117476E-01  2.497769845998E-01  4.295212430558E-01
H60  3.405285117476E-01 -2.497769845998E-01 -4.295212430558E-01


#===END

data_OPT_STEP_4

_symmetry_space_group_name_H-M 'P 1'
_cell_length_a      7.71613935
_cell_length_b      5.99410488
_cell_length_c     13.43282182
_cell_angle_alpha  100.897625
_cell_angle_beta  113.117059
_cell_angle_gamma   85.624233

loop_
_atom_site_label
_atom_site_fract_x
_atom_site_fract_y
_atom_site_fract_z
C1  1.152101057103E-01  3.617784640102E-02  3.876518394544E-01
C2 -1.152101057103E-01 -3.617784640102E-02 -3.876518394544E-01
C3  1.454977099713E-01  1.566372171614E-01  3.201613728292E-01
C4 -1.454977099713E-01 -1.566372171614E-01 -3.201613728292E-01
C5  7.785692673501E-02  7.565040537345E-02  2.046918356227E-01
C6 -7.785692673501E-02 -7.565040537345E-02 -2.046918356227E-01
C7  1.047469622170E-01  1.959461736120E-01  1.334336722542E-01
C8 -1.047469622170E-01 -1.959461736120E-01 -1.334336722542E-01
C9  4.740179909944E-02  1.085883985925E-01  2.096055552228E-02
C10 -4.740179909944E-02 -1.085883985925E-01 -2.096055552228E-02
C11  7.125876255974E-02  2.296236483038E-01 -5.242783695679E-02
C12 -7.125876255974E-02 -2.296236483038E-01  5.242783695679E-02
C13 -1.067439120950E-03 -1.485814537042E-01  1.645103996096E-01
C14  1.067439120950E-03  1.485814537042E-01 -1.645103996096E-01
C15 -3.404491022353E-02 -2.654829544170E-01  2.379609923332E-01
C16  3.404491022353E-02  2.654829544170E-01 -2.379609923332E-01
C17  3.007218340039E-02 -1.822147613466E-01  3.464763501852E-01
C18 -3.007218340039E-02  1.822147613466E-01 -3.464763501852E-01
H19  1.602568201940E-01  1.059690775704E-01  4.746578802706E-01
H20 -1.602568201940E-01 -1.059690775704E-01 -4.746578802706E-01
H21  2.128385613882E-01  3.218951371310E-01  3.500798235069E-01
H22 -2.128385613882E-01 -3.218951371310E-01 -3.500798235069E-01
H23  1.736587604991E-01  3.598090886938E-01  1.641987372794E-01
H24 -1.736587604991E-01 -3.598090886938E-01 -1.641987372794E-01
H25  1.415312859762E-01  3.933644648494E-01 -2.126307306318E-02
H26 -1.415312859762E-01 -3.933644648494E-01  2.126307306318E-02
H27 -9.989657283699E-02 -4.309485271153E-01  2.047073529938E-01
H28  9.989657283699E-02  4.309485271153E-01 -2.047073529938E-01
H29  1.337347289585E-02 -2.807475595659E-01  4.020074145734E-01
H30 -1.337347289585E-02  2.807475595659E-01 -4.020074145734E-01
C31 -4.572448771152E-01 -4.314679527062E-01  3.777632251242E-01
C32  4.572448771152E-01  4.314679527062E-01 -3.777632251242E-01
C33  4.815438376614E-01 -3.152935393734E-01  2.923648164614E-01
C34 -4.815438376614E-01  3.152935393734E-01 -2.923648164614E-01
C35  4.998863938845E-01 -4.094849583691E-01  1.914617187875E-01
C36 -4.998863938845E-01  4.094849583691E-01 -1.914617187875E-01
C37  4.425351919531E-01 -2.933071731155E-01  1.041991404526E-01
C38 -4.425351919531E-01  2.933071731155E-01 -1.041991404526E-01
C39  4.685481638260E-01 -3.832464993709E-01  7.253263562825E-03
C40 -4.685481638260E-01  3.832464993709E-01 -7.253263562825E-03
C41  4.084118357361E-01 -2.678569297368E-01 -8.186751290485E-02
C42 -4.084118357361E-01  2.678569297368E-01  8.186751290485E-02
C43 -4.278793011069E-01  3.623163832288E-01  1.790586258188E-01
C44  4.278793011069E-01 -3.623163832288E-01 -1.790586258188E-01
C45 -3.683008844113E-01  2.474032467187E-01  2.707924581430E-01
C46  3.683008844113E-01 -2.474032467187E-01 -2.707924581430E-01
C47 -3.877956760203E-01  3.435093895993E-01  3.660012446223E-01
C48  3.877956760203E-01 -3.435093895993E-01 -3.660012446223E-01
H49 -4.696343385672E-01 -3.507658985021E-01  4.542464934284E-01
H50  4.696343385672E-01  3.507658985021E-01 -4.542464934284E-01
H51  4.210695917876E-01 -1.470212305345E-01  3.017134441582E-01
H52 -4.210695917876E-01  1.470212305345E-01 -3.017134441582E-01
H53  3.780470812694E-01 -1.265994394622E-01  1.116361935372E-01
H54 -3.780470812694E-01  1.265994394622E-01 -1.116361935372E-01
H55  3.436449580783E-01 -1.011835971572E-01 -7.457817803191E-02
H56 -3.436449580783E-01  1.011835971572E-01  7.457817803191E-02
H57 -3.067767441225E-01  7.842786813143E-02  2.623449711406E-01
H58  3.067767441225E-01 -7.842786813143E-02 -2.623449711406E-01
H59 -3.434767729925E-01  2.519441245402E-01  4.341222339031E-01
H60  3.434767729925E-01 -2.519441245402E-01 -4.341222339031E-01


#===END

data_OPT_STEP_5

_symmetry_space_group_name_H-M 'P 1'
_cell_length_a      7.56987170
_cell_length_b      5.94325128
_cell_length_c     13.39531318
_cell_angle_alpha  100.972519
_cell_angle_beta  113.166129
_cell_angle_gamma   85.304182

loop_
_atom_site_label
_atom_site_fract_x
_atom_site_fract_y
_atom_site_fract_z
C1  1.175225603195E-01  3.527089919595E-02  3.893367316625E-01
C2 -1.175225603195E-01 -3.527089919595E-02 -3.893367316625E-01
C3  1.436488686756E-01  1.588239792683E-01  3.207654839582E-01
C4 -1.436488686756E-01 -1.588239792683E-01 -3.207654839582E-01
C5  7.995786767041E-02  7.474703105023E-02  2.054907482535E-01
C6 -7.995786767041E-02 -7.474703105023E-02 -2.054907482535E-01
C7  1.087884805805E-01  1.951067691027E-01  1.341879083125E-01
C8 -1.087884805805E-01 -1.951067691027E-01 -1.341879083125E-01
C9  4.645207951988E-02  1.099390134507E-01  2.116182352704E-02
C10 -4.645207951988E-02 -1.099390134507E-01 -2.116182352704E-02
C11  7.334161343652E-02  2.315580822815E-01 -5.184917383098E-02
C12 -7.334161343652E-02 -2.315580822815E-01  5.184917383098E-02
C13 -6.879107195588E-03 -1.479263754980E-01  1.638794405334E-01
C14  6.879107195588E-03  1.479263754980E-01 -1.638794405334E-01
C15 -3.628816578700E-02 -2.680788828269E-01  2.383497535680E-01
C16  3.628816578700E-02  2.680788828269E-01 -2.383497535680E-01
C17  2.427177972595E-02 -1.803922635838E-01  3.471931546095E-01
C18 -2.427177972595E-02  1.803922635838E-01 -3.471931546095E-01
H19  1.679126480083E-01  1.018098037966E-01  4.774122347044E-01
H20 -1.679126480083E-01 -1.018098037966E-01 -4.774122347044E-01
H21  2.101829424803E-01  3.265571538116E-01  3.513060262976E-01
H22 -2.101829424803E-01 -3.265571538116E-01 -3.513060262976E-01
H23  1.777793037611E-01  3.608861745770E-01  1.657871654534E-01
H24 -1.777793037611E-01 -3.608861745770E-01 -1.657871654534E-01
H25  1.397579196479E-01  3.991409672869E-01 -2.039982730073E-02
H26 -1.397579196479E-01 -3.991409672869E-01  2.039982730073E-02
H27 -1.026451914979E-01 -4.356014766108E-01  2.055325588372E-01
H28  1.026451914979E-01  4.356014766108E-01 -2.055325588372E-01
H29  6.538051647948E-03 -2.787678748342E-01  4.032586787817E-01
H30 -6.538051647948E-03  2.787678748342E-01 -4.032586787817E-01
C31 -4.588136058595E-01 -4.303027193881E-01  3.782689864584E-01
C32  4.588136058595E-01  4.303027193881E-01 -3.782689864584E-01
C33  4.776529478171E-01 -3.139997871168E-01  2.925146117446E-01
C34 -4.776529478171E-01  3.139997871168E-01 -2.925146117446E-01
C35  4.941198808260E-01 -4.105892799312E-01  1.907194149218E-01
C36 -4.941198808260E-01  4.105892799312E-01 -1.907194149218E-01
C37  4.373556444776E-01 -2.921016012820E-01  1.036745572117E-01
C38 -4.373556444776E-01  2.921016012820E-01 -1.036745572117E-01
C39  4.610343817111E-01 -3.858280449012E-01  5.755956091109E-03
C40 -4.610343817111E-01  3.858280449012E-01 -5.755956091109E-03
C41  4.013479333784E-01 -2.682616036105E-01 -8.357201772221E-02
C42 -4.013479333784E-01  2.682616036105E-01  8.357201772221E-02
C43 -4.234250032058E-01  3.632655424586E-01  1.805200172658E-01
C44  4.234250032058E-01 -3.632655424586E-01 -1.805200172658E-01
C45 -3.626716244493E-01  2.460931227844E-01  2.723789746330E-01
C46  3.626716244493E-01 -2.460931227844E-01 -2.723789746330E-01
C47 -3.835787522764E-01  3.446501265337E-01  3.673618903321E-01
C48  3.835787522764E-01 -3.446501265337E-01 -3.673618903321E-01
H49 -4.711343409212E-01 -3.503716882237E-01  4.551436855406E-01
H50  4.711343409212E-01  3.503716882237E-01 -4.551436855406E-01
H51  4.224831280300E-01 -1.401395158430E-01  3.024520125464E-01
H52 -4.224831280300E-01  1.401395158430E-01 -3.024520125464E-01
H53  3.829042362081E-01 -1.179509120147E-01  1.135360671433E-01
H54 -3.829042362081E-01  1.179509120147E-01 -1.135360671433E-01
H55  3.462166115815E-01 -9.383314994829E-02 -7.416657052513E-02
H56 -3.462166115815E-01  9.383314994829E-02  7.416657052513E-02
H57 -3.078203616781E-01  7.176932854559E-02  2.626488531839E-01
H58  3.078203616781E-01 -7.176932854559E-02 -2.626488531839E-01
H59 -3.371117804205E-01  2.531659413160E-01  4.365937377670E-01
H60  3.371117804205E-01 -2.531659413160E-01 -4.365937377670E-01


#===END

data_OPT_STEP_6

_symmetry_space_group_name_H-M 'P 1'
_cell_length_a      7.41772967
_cell_length_b      5.89484336
_cell_length_c     13.35384042
_cell_angle_alpha  100.766417
_cell_angle_beta  113.211683
_cell_angle_gamma   85.436561

loop_
_atom_site_label
_atom_site_fract_x
_atom_site_fract_y
_atom_site_fract_z
C1  1.152966133634E-01  3.856797473053E-02  3.911474316837E-01
C2 -1.152966133634E-01 -3.856797473053E-02 -3.911474316837E-01
C3  1.401125226952E-01  1.640710677700E-01  3.216498679777E-01
C4 -1.401125226952E-01 -1.640710677700E-01 -3.216498679777E-01
C5  8.019956437197E-02  7.592819940322E-02  2.062682106526E-01
C6 -8.019956437197E-02 -7.592819940322E-02 -2.062682106526E-01
C7  1.087084063269E-01  1.977244316812E-01  1.346854473548E-01
C8 -1.087084063269E-01 -1.977244316812E-01 -1.346854473548E-01
C9  4.614712140503E-02  1.113398516990E-01  2.124021037621E-02
C10 -4.614712140503E-02 -1.113398516990E-01 -2.124021037621E-02
C11  7.357471063000E-02  2.342065785499E-01 -5.189189164580E-02
C12 -7.357471063000E-02 -2.342065785499E-01  5.189189164580E-02
C13 -1.630360110652E-02 -1.439469469946E-01  1.634835055677E-01
C14  1.630360110652E-02  1.439469469946E-01 -1.634835055677E-01
C15 -3.780285432683E-02 -2.712013076762E-01  2.395288356356E-01
C16  3.780285432683E-02  2.712013076762E-01 -2.395288356356E-01
C17  2.732219922763E-02 -1.839701043904E-01  3.497304955923E-01
C18 -2.732219922763E-02  1.839701043904E-01 -3.497304955923E-01
H19  1.626567916521E-01  1.078077372586E-01  4.787650058212E-01
H20 -1.626567916521E-01 -1.078077372586E-01 -4.787650058212E-01
H21  2.080725753166E-01  3.326301760791E-01  3.523540456414E-01
H22 -2.080725753166E-01 -3.326301760791E-01 -3.523540456414E-01
H23  1.785061180728E-01  3.652571910346E-01  1.666543531631E-01
H24 -1.785061180728E-01 -3.652571910346E-01 -1.666543531631E-01
H25  1.425031878273E-01  4.023184410768E-01 -2.000511573714E-02
H26 -1.425031878273E-01 -4.023184410768E-01  2.000511573714E-02
H27 -1.056318211404E-01 -4.394205605304E-01  2.068955025503E-01
H28  1.056318211404E-01  4.394205605304E-01 -2.068955025503E-01
H29  8.891656433472E-03 -2.822376198897E-01  4.060876753688E-01
H30 -8.891656433472E-03  2.822376198897E-01 -4.060876753688E-01
C31 -4.590443715579E-01 -4.287824324826E-01  3.796922443700E-01
C32  4.590443715579E-01  4.287824324826E-01 -3.796922443700E-01
C33  4.834572691654E-01 -3.074699623473E-01  2.950112022387E-01
C34 -4.834572691654E-01  3.074699623473E-01 -2.950112022387E-01
C35  4.991269229343E-01 -4.065575341853E-01  1.929136763924E-01
C36 -4.991269229343E-01  4.065575341853E-01 -1.929136763924E-01
C37  4.406886085112E-01 -2.875484227057E-01  1.050253989167E-01
C38 -4.406886085112E-01  2.875484227057E-01 -1.050253989167E-01
C39  4.598302022638E-01 -3.854057009198E-01  5.426992731422E-03
C40 -4.598302022638E-01  3.854057009198E-01 -5.426992731422E-03
C41  4.047938746405E-01 -2.639971667025E-01 -8.328789424970E-02
C42 -4.047938746405E-01  2.639971667025E-01  8.328789424970E-02
C43 -4.248772743351E-01  3.612889166932E-01  1.811578615320E-01
C44  4.248772743351E-01 -3.612889166932E-01 -1.811578615320E-01
C45 -3.648046496205E-01  2.419309631627E-01  2.726034592730E-01
C46  3.648046496205E-01 -2.419309631627E-01 -2.726034592730E-01
C47 -3.806601663090E-01  3.439766779257E-01  3.689081083334E-01
C48  3.806601663090E-01 -3.439766779257E-01 -3.689081083334E-01
H49 -4.713778764868E-01 -3.497969327374E-01  4.567420623742E-01
H50  4.713778764868E-01  3.497969327374E-01 -4.567420623742E-01
H51  4.218041756515E-01 -1.352873458011E-01  3.030359410945E-01
H52 -4.218041756515E-01  1.352873458011E-01 -3.030359410945E-01
H53  3.756645313422E-01 -1.171630202424E-01  1.123051340753E-01
H54 -3.756645313422E-01  1.171630202424E-01 -1.123051340753E-01
H55  3.406500849371E-01 -9.308009127900E-02 -7.576144678397E-02
H56 -3.406500849371E-01  9.308009127900E-02  7.576144678397E-02
H57 -3.006187658763E-01  7.140981533559E-02  2.647193603806E-01
H58  3.006187658763E-01 -7.140981533559E-02 -2.647193603806E-01
H59 -3.339963486239E-01  2.517231940704E-01  4.381507567299E-01
H60  3.339963486239E-01 -2.517231940704E-01 -4.381507567299E-01


#===END

data_OPT_STEP_7

_symmetry_space_group_name_H-M 'P 1'
_cell_length_a      7.24620145
_cell_length_b      5.87567586
_cell_length_c     13.31881770
_cell_angle_alpha  100.346926
_cell_angle_beta  113.275058
_cell_angle_gamma   85.782860

loop_
_atom_site_label
_atom_site_fract_x
_atom_site_fract_y
_atom_site_fract_z
C1  1.125857631684E-01  3.562954465624E-02  3.909808743866E-01
C2 -1.125857631684E-01 -3.562954465624E-02 -3.909808743866E-01
C3  1.375941479193E-01  1.636309703202E-01  3.216406362073E-01
C4 -1.375941479193E-01 -1.636309703202E-01 -3.216406362073E-01
C5  7.748681191951E-02  7.594870595307E-02  2.061565005748E-01
C6 -7.748681191951E-02 -7.594870595307E-02 -2.061565005748E-01
C7  1.065743151685E-01  1.998778025712E-01  1.345764260529E-01
C8 -1.065743151685E-01 -1.998778025712E-01 -1.345764260529E-01
C9  4.699079861417E-02  1.119655849321E-01  2.123406047442E-02
C10 -4.699079861417E-02 -1.119655849321E-01 -2.123406047442E-02
C11  7.450482335202E-02  2.366810039699E-01 -5.210081878454E-02
C12 -7.450482335202E-02 -2.366810039699E-01  5.210081878454E-02
C13 -1.392273069327E-02 -1.486859524963E-01  1.640309673408E-01
C14  1.392273069327E-02  1.486859524963E-01 -1.640309673408E-01
C15 -4.177400174253E-02 -2.743382866322E-01  2.392309709784E-01
C16  4.177400174253E-02  2.743382866322E-01 -2.392309709784E-01
C17  2.281937566716E-02 -1.877333291372E-01  3.493002461242E-01
C18 -2.281937566716E-02  1.877333291372E-01 -3.493002461242E-01
H19  1.611803733514E-01  1.039435238356E-01  4.787149726418E-01
H20 -1.611803733514E-01 -1.039435238356E-01 -4.787149726418E-01
H21  2.054373945241E-01  3.335767835121E-01  3.523755500289E-01
H22 -2.054373945241E-01 -3.335767835121E-01 -3.523755500289E-01
H23  1.779671677733E-01  3.678873465534E-01  1.666078285520E-01
H24 -1.779671677733E-01 -3.678873465534E-01 -1.666078285520E-01
H25  1.477831443522E-01  4.037650921056E-01 -1.990618688921E-02
H26 -1.477831443522E-01 -4.037650921056E-01  1.990618688921E-02
H27 -1.110699277620E-01 -4.427527961680E-01  2.065495002296E-01
H28  1.110699277620E-01  4.427527961680E-01 -2.065495002296E-01
H29  3.413012528166E-03 -2.874849779071E-01  4.054172392891E-01
H30 -3.413012528166E-03  2.874849779071E-01 -4.054172392891E-01
C31 -4.572422944738E-01 -4.283278808541E-01  3.805821800795E-01
C32  4.572422944738E-01  4.283278808541E-01 -3.805821800795E-01
C33  4.835316587377E-01 -3.070955446489E-01  2.951947678606E-01
C34 -4.835316587377E-01  3.070955446489E-01 -2.951947678606E-01
C35  4.993597098849E-01 -4.065193142081E-01  1.931505783416E-01
C36 -4.993597098849E-01  4.065193142081E-01 -1.931505783416E-01
C37  4.428570173577E-01 -2.856553927298E-01  1.053788506965E-01
C38 -4.428570173577E-01  2.856553927298E-01 -1.053788506965E-01
C39  4.611629204115E-01 -3.841562277188E-01  5.545016133862E-03
C40 -4.611629204115E-01  3.841562277188E-01 -5.545016133862E-03
C41  4.054883663332E-01 -2.623417270532E-01 -8.350990649335E-02
C42 -4.054883663332E-01  2.623417270532E-01  8.350990649335E-02
C43 -4.215814191945E-01  3.620910934654E-01  1.823423745995E-01
C44  4.215814191945E-01 -3.620910934654E-01 -1.823423745995E-01
C45 -3.610890165276E-01  2.422709919153E-01  2.742193677116E-01
C46  3.610890165276E-01 -2.422709919153E-01 -2.742193677116E-01
C47 -3.759706075755E-01  3.446860894803E-01  3.708181588531E-01
C48  3.759706075755E-01 -3.446860894803E-01 -3.708181588531E-01
H49 -4.708728118633E-01 -3.497654914181E-01  4.573249443235E-01
H50  4.708728118633E-01  3.497654914181E-01 -4.573249443235E-01
H51  4.211315831936E-01 -1.346145608521E-01  3.028918628761E-01
H52 -4.211315831936E-01  1.346145608521E-01 -3.028918628761E-01
H53  3.811731504324E-01 -1.126926258225E-01  1.132189995344E-01
H54 -3.811731504324E-01  1.126926258225E-01 -1.132189995344E-01
H55  3.430239971582E-01 -8.985996511988E-02 -7.578711675569E-02
H56 -3.430239971582E-01  8.985996511988E-02  7.578711675569E-02
H57 -2.983867090565E-01  7.010703899005E-02  2.661772795675E-01
H58  2.983867090565E-01 -7.010703899005E-02 -2.661772795675E-01
H59 -3.279099917540E-01  2.525242214967E-01  4.405382177792E-01
H60  3.279099917540E-01 -2.525242214967E-01 -4.405382177792E-01


#===END

data_OPT_STEP_8

_symmetry_space_group_name_H-M 'P 1'
_cell_length_a      7.32462704
_cell_length_b      5.87966059
_cell_length_c     13.27352425
_cell_angle_alpha  100.680558
_cell_angle_beta  113.363761
_cell_angle_gamma   86.127451

loop_
_atom_site_label
_atom_site_fract_x
_atom_site_fract_y
_atom_site_fract_z
C1  1.256591384208E-01  3.423002981551E-02  3.941426461667E-01
C2 -1.256591384208E-01 -3.423002981551E-02 -3.941426461667E-01
C3  1.463350055002E-01  1.637865382635E-01  3.241944950193E-01
C4 -1.463350055002E-01 -1.637865382635E-01 -3.241944950193E-01
C5  8.328118014897E-02  7.624478202127E-02  2.079327058448E-01
C6 -8.328118014897E-02 -7.624478202127E-02 -2.079327058448E-01
C7  1.063184768347E-01  2.027688638662E-01  1.352379694278E-01
C8 -1.063184768347E-01 -2.027688638662E-01 -1.352379694278E-01
C9  4.490607864264E-02  1.135842957156E-01  2.105978497712E-02
C10 -4.490607864264E-02 -1.135842957156E-01 -2.105978497712E-02
C11  6.535234799658E-02  2.411312371754E-01 -5.350115050049E-02
C12 -6.535234799658E-02 -2.411312371754E-01  5.350115050049E-02
C13 -2.013967529038E-03 -1.528585788648E-01  1.661710287426E-01
C14  2.013967529038E-03  1.528585788648E-01 -1.661710287426E-01
C15 -2.833544708404E-02 -2.776598874002E-01  2.417305784217E-01
C16  2.833544708404E-02  2.776598874002E-01 -2.417305784217E-01
C17  3.379077936670E-02 -1.880076439315E-01  3.519471293605E-01
C18 -3.379077936670E-02  1.880076439315E-01 -3.519471293605E-01
H19  1.755416660693E-01  1.028721143814E-01  4.824752380821E-01
H20 -1.755416660693E-01 -1.028721143814E-01 -4.824752380821E-01
H21  2.112300512124E-01  3.359160698901E-01  3.550502542743E-01
H22 -2.112300512124E-01 -3.359160698901E-01 -3.550502542743E-01
H23  1.789725512192E-01  3.704762794126E-01  1.675276092964E-01
H24 -1.789725512192E-01 -3.704762794126E-01 -1.675276092964E-01
H25  1.353641351427E-01  4.105915511925E-01 -2.140477629175E-02
H26 -1.353641351427E-01 -4.105915511925E-01  2.140477629175E-02
H27 -9.973204581884E-02 -4.456900695804E-01  2.089922717598E-01
H28  9.973204581884E-02  4.456900695804E-01 -2.089922717598E-01
H29  1.119050936167E-02 -2.856438635293E-01  4.079006832249E-01
H30 -1.119050936167E-02  2.856438635293E-01 -4.079006832249E-01
C31 -4.616750889897E-01 -4.301406070551E-01  3.809180426787E-01
C32  4.616750889897E-01  4.301406070551E-01 -3.809180426787E-01
C33  4.783345512155E-01 -3.102997986790E-01  2.951904288037E-01
C34 -4.783345512155E-01  3.102997986790E-01 -2.951904288037E-01
C35  4.925162437299E-01 -4.103555056609E-01  1.923186190205E-01
C36 -4.925162437299E-01  4.103555056609E-01 -1.923186190205E-01
C37  4.399994085280E-01 -2.882430344793E-01  1.052385036277E-01
C38 -4.399994085280E-01  2.882430344793E-01 -1.052385036277E-01
C39  4.607867645793E-01 -3.848728974322E-01  5.683680640850E-03
C40 -4.607867645793E-01  3.848728974322E-01 -5.683680640850E-03
C41  4.087569106335E-01 -2.622533560728E-01 -8.282587560412E-02
C42 -4.087569106335E-01  2.622533560728E-01  8.282587560412E-02
C43 -4.260640021335E-01  3.610152685537E-01  1.817251296333E-01
C44  4.260640021335E-01 -3.610152685537E-01 -1.817251296333E-01
C45 -3.667153022099E-01  2.410435144104E-01  2.735758023363E-01
C46  3.667153022099E-01 -2.410435144104E-01 -2.735758023363E-01
C47 -3.815372657462E-01  3.431795096615E-01  3.704832927709E-01
C48  3.815372657462E-01 -3.431795096615E-01 -3.704832927709E-01
H49 -4.734251083642E-01 -3.515131319695E-01  4.585088766946E-01
H50  4.734251083642E-01  3.515131319695E-01 -4.585088766946E-01
H51  4.183458098067E-01 -1.373659540427E-01  3.035225572708E-01
H52 -4.183458098067E-01  1.373659540427E-01 -3.035225572708E-01
H53  3.821980843174E-01 -1.140829828094E-01  1.142347572998E-01
H54 -3.821980843174E-01  1.140829828094E-01 -1.142347572998E-01
H55  3.479255793339E-01 -8.970249038165E-02 -7.446612554367E-02
H56 -3.479255793339E-01  8.970249038165E-02  7.446612554367E-02
H57 -3.064207257129E-01  6.839485611813E-02  2.648157983796E-01
H58  3.064207257129E-01 -6.839485611813E-02 -2.648157983796E-01
H59 -3.343420701628E-01  2.509536903912E-01  4.401518720614E-01
H60  3.343420701628E-01 -2.509536903912E-01 -4.401518720614E-01


#===END

data_OPT_STEP_9

_symmetry_space_group_name_H-M 'P 1'
_cell_length_a      7.26024589
_cell_length_b      5.87711153
_cell_length_c     13.30330959
_cell_angle_alpha  100.441726
_cell_angle_beta  113.297816
_cell_angle_gamma   85.844288

loop_
_atom_site_label
_atom_site_fract_x
_atom_site_fract_y
_atom_site_fract_z
C1  1.158947892507E-01  3.477817332422E-02  3.917503843577E-01
C2 -1.158947892507E-01 -3.477817332422E-02 -3.917503843577E-01
C3  1.401824934988E-01  1.631295924231E-01  3.223960376340E-01
C4 -1.401824934988E-01 -1.631295924231E-01 -3.223960376340E-01
C5  7.860118857891E-02  7.621388228635E-02  2.066436913559E-01
C6 -7.860118857891E-02 -7.621388228635E-02 -2.066436913559E-01
C7  1.060039092063E-01  2.009613756971E-01  1.347306353250E-01
C8 -1.060039092063E-01 -2.009613756971E-01 -1.347306353250E-01
C9  4.627071379406E-02  1.124980402960E-01  2.117851292807E-02
C10 -4.627071379406E-02 -1.124980402960E-01 -2.117851292807E-02
C11  7.252123553207E-02  2.376060827124E-01 -5.244287474588E-02
C12 -7.252123553207E-02 -2.376060827124E-01  5.244287474588E-02
C13 -1.113619775141E-02 -1.496695590640E-01  1.645709108669E-01
C14  1.113619775141E-02  1.496695590640E-01 -1.645709108669E-01
C15 -3.779913674501E-02 -2.756477380526E-01  2.398629768130E-01
C16  3.779913674501E-02  2.756477380526E-01 -2.398629768130E-01
C17  2.478369104886E-02 -1.876367427289E-01  3.497902345851E-01
C18 -2.478369104886E-02  1.876367427289E-01 -3.497902345851E-01
H19  1.640219496360E-01  1.035028165448E-01  4.796139768453E-01
H20 -1.640219496360E-01 -1.035028165448E-01 -4.796139768453E-01
H21  2.066389733219E-01  3.340663409614E-01  3.531743685384E-01
H22 -2.066389733219E-01 -3.340663409614E-01 -3.531743685384E-01
H23  1.778807597800E-01  3.688121444666E-01  1.668203952928E-01
H24 -1.778807597800E-01 -3.688121444666E-01 -1.668203952928E-01
H25  1.436329724693E-01  4.060639139672E-01 -2.038979967317E-02
H26 -1.436329724693E-01 -4.060639139672E-01  2.038979967317E-02
H27 -1.079211988974E-01 -4.438765392005E-01  2.071567478448E-01
H28  1.079211988974E-01  4.438765392005E-01 -2.071567478448E-01
H29  3.342464671788E-03 -2.864231343875E-01  4.056988752965E-01
H30 -3.342464671788E-03  2.864231343875E-01 -4.056988752965E-01
C31 -4.578646473744E-01 -4.286177121050E-01  3.808327453492E-01
C32  4.578646473744E-01  4.286177121050E-01 -3.808327453492E-01
C33  4.820527996877E-01 -3.080565487402E-01  2.952105222736E-01
C34 -4.820527996877E-01  3.080565487402E-01 -2.952105222736E-01
C35  4.970698952455E-01 -4.078091700124E-01  1.928202168502E-01
C36 -4.970698952455E-01  4.078091700124E-01 -1.928202168502E-01
C37  4.413271833009E-01 -2.867962663419E-01  1.051571162683E-01
C38 -4.413271833009E-01  2.867962663419E-01 -1.051571162683E-01
C39  4.609509873018E-01 -3.843573014783E-01  5.572492457673E-03
C40 -4.609509873018E-01  3.843573014783E-01 -5.572492457673E-03
C41  4.056609696217E-01 -2.627418362624E-01 -8.348469501901E-02
C42 -4.056609696217E-01  2.627418362624E-01  8.348469501901E-02
C43 -4.233064570076E-01  3.615155091217E-01  1.820296867039E-01
C44  4.233064570076E-01 -3.615155091217E-01 -1.820296867039E-01
C45 -3.619691997932E-01  2.422201607230E-01  2.741881084212E-01
C46  3.619691997932E-01 -2.422201607230E-01 -2.741881084212E-01
C47 -3.775745382734E-01  3.441132819786E-01  3.706877599729E-01
C48  3.775745382734E-01 -3.441132819786E-01 -3.706877599729E-01
H49 -4.711282733991E-01 -3.501150980003E-01  4.578304710087E-01
H50  4.711282733991E-01  3.501150980003E-01 -4.578304710087E-01
H51  4.210791782343E-01 -1.349664957853E-01  3.032664156911E-01
H52 -4.210791782343E-01  1.349664957853E-01 -3.032664156911E-01
H53  3.812970255567E-01 -1.131092121895E-01  1.134656460839E-01
H54 -3.812970255567E-01  1.131092121895E-01 -1.134656460839E-01
H55  3.438355243878E-01 -9.003000623207E-02 -7.553558039968E-02
H56 -3.438355243878E-01  9.003000623207E-02  7.553558039968E-02
H57 -2.998755505734E-01  6.982174062316E-02  2.659672116450E-01
H58  2.998755505734E-01 -6.982174062316E-02 -2.659672116450E-01
H59 -3.297340783777E-01  2.518026322049E-01  4.403870704857E-01
H60  3.297340783777E-01 -2.518026322049E-01 -4.403870704857E-01


#===END

data_OPT_STEP_10

_symmetry_space_group_name_H-M 'P 1'
_cell_length_a      7.27106833
_cell_length_b      5.87154926
_cell_length_c     13.29231896
_cell_angle_alpha  100.560275
_cell_angle_beta  113.295888
_cell_angle_gamma   86.008325

loop_
_atom_site_label
_atom_site_fract_x
_atom_site_fract_y
_atom_site_fract_z
C1  1.161547612331E-01  3.425274993361E-02  3.920380366069E-01
C2 -1.161547612331E-01 -3.425274993361E-02 -3.920380366069E-01
C3  1.403737758411E-01  1.632010659024E-01  3.229027383162E-01
C4 -1.403737758411E-01 -1.632010659024E-01 -3.229027383162E-01
C5  7.933272801142E-02  7.599353417574E-02  2.070059128586E-01
C6 -7.933272801142E-02 -7.599353417574E-02 -2.070059128586E-01
C7  1.067910537937E-01  2.010505763683E-01  1.351420499514E-01
C8 -1.067910537937E-01 -2.010505763683E-01 -1.351420499514E-01
C9  4.598156812022E-02  1.129626643970E-01  2.131831919422E-02
C10 -4.598156812022E-02 -1.129626643970E-01 -2.131831919422E-02
C11  7.250717043607E-02  2.382652121355E-01 -5.220078095485E-02
C12 -7.250717043607E-02 -2.382652121355E-01  5.220078095485E-02
C13 -1.142626027838E-02 -1.500264187135E-01  1.644842914577E-01
C14  1.142626027838E-02  1.500264187135E-01 -1.644842914577E-01
C15 -3.678117000495E-02 -2.771782781619E-01  2.397214035463E-01
C16  3.678117000495E-02  2.771782781619E-01 -2.397214035463E-01
C17  2.657741901755E-02 -1.896324892030E-01  3.498200138275E-01
C18 -2.657741901755E-02  1.896324892030E-01 -3.498200138275E-01
H19  1.649907293379E-01  1.024667337727E-01  4.801825931072E-01
H20 -1.649907293379E-01 -1.024667337727E-01 -4.801825931072E-01
H21  2.061770538648E-01  3.350998519497E-01  3.538736641301E-01
H22 -2.061770538648E-01 -3.350998519497E-01 -3.538736641301E-01
H23  1.780870944305E-01  3.698493515382E-01  1.673488079216E-01
H24 -1.780870944305E-01 -3.698493515382E-01 -1.673488079216E-01
H25  1.405275481029E-01  4.089870944029E-01 -2.018972893149E-02
H26 -1.405275481029E-01 -4.089870944029E-01  2.018972893149E-02
H27 -1.069794016430E-01 -4.460272699036E-01  2.068405894499E-01
H28  1.069794016430E-01  4.460272699036E-01 -2.068405894499E-01
H29  7.713688925854E-03 -2.907508513596E-01  4.057249184725E-01
H30 -7.713688925854E-03  2.907508513596E-01 -4.057249184725E-01
C31 -4.567077667387E-01 -4.288692595392E-01  3.813827368195E-01
C32  4.567077667387E-01  4.288692595392E-01 -3.813827368195E-01
C33  4.833372239446E-01 -3.083042570952E-01  2.958538132392E-01
C34 -4.833372239446E-01  3.083042570952E-01 -2.958538132392E-01
C35  4.997158684527E-01 -4.068766537805E-01  1.935777593115E-01
C36 -4.997158684527E-01  4.068766537805E-01 -1.935777593115E-01
C37  4.422480223936E-01 -2.868203863696E-01  1.056284388654E-01
C38 -4.422480223936E-01  2.868203863696E-01 -1.056284388654E-01
C39  4.608565506056E-01 -3.844470158921E-01  5.682809168020E-03
C40 -4.608565506056E-01  3.844470158921E-01 -5.682809168020E-03
C41  4.033332345169E-01 -2.641638598163E-01 -8.380250669035E-02
C42 -4.033332345169E-01  2.641638598163E-01  8.380250669035E-02
C43 -4.216834697049E-01  3.622128915234E-01  1.823006366602E-01
C44  4.216834697049E-01 -3.622128915234E-01 -1.823006366602E-01
C45 -3.609594234137E-01  2.424105981040E-01  2.743195352524E-01
C46  3.609594234137E-01 -2.424105981040E-01 -2.743195352524E-01
C47 -3.777071152266E-01  3.435104567288E-01  3.706591609644E-01
C48  3.777071152266E-01 -3.435104567288E-01 -3.706591609644E-01
H49 -4.695888372740E-01 -3.502940940517E-01  4.586379090910E-01
H50  4.695888372740E-01  3.502940940517E-01 -4.586379090910E-01
H51  4.233714607224E-01 -1.348019507569E-01  3.043284559037E-01
H52 -4.233714607224E-01  1.348019507569E-01 -3.043284559037E-01
H53  3.828846243642E-01 -1.129107570813E-01  1.142972381466E-01
H54 -3.828846243642E-01  1.129107570813E-01 -1.142972381466E-01
H55  3.432380399606E-01 -9.056505197275E-02 -7.529529651584E-02
H56 -3.432380399606E-01  9.056505197275E-02  7.529529651584E-02
H57 -3.012184586457E-01  6.882178500664E-02  2.654363974395E-01
H58  3.012184586457E-01 -6.882178500664E-02 -2.654363974395E-01
H59 -3.301660203217E-01  2.509131347573E-01  4.402658063411E-01
H60  3.301660203217E-01 -2.509131347573E-01 -4.402658063411E-01


#===END

data_OPT_STEP_11

_symmetry_space_group_name_H-M 'P 1'
_cell_length_a      7.29432873
_cell_length_b      5.86443562
_cell_length_c     13.28730946
_cell_angle_alpha  100.663687
_cell_angle_beta  113.327243
_cell_angle_gamma   85.786245

loop_
_atom_site_label
_atom_site_fract_x
_atom_site_fract_y
_atom_site_fract_z
C1  1.189159370347E-01  3.549873412692E-02  3.927512569334E-01
C2 -1.189159370347E-01 -3.549873412692E-02 -3.927512569334E-01
C3  1.419513458363E-01  1.643421803198E-01  3.232782967916E-01
C4 -1.419513458363E-01 -1.643421803198E-01 -3.232782967916E-01
C5  8.074486937327E-02  7.655135909500E-02  2.073194856535E-01
C6 -8.074486937327E-02 -7.655135909500E-02 -2.073194856535E-01
C7  1.074306933704E-01  2.012474912388E-01  1.351594373004E-01
C8 -1.074306933704E-01 -2.012474912388E-01 -1.351594373004E-01
C9  4.599861828822E-02  1.128450332482E-01  2.122288569708E-02
C10 -4.599861828822E-02 -1.128450332482E-01 -2.122288569708E-02
C11  7.167152748156E-02  2.378314901762E-01 -5.259992427357E-02
C12 -7.167152748156E-02 -2.378314901762E-01  5.259992427357E-02
C13 -9.721694948053E-03 -1.495252756378E-01  1.649992174768E-01
C14  9.721694948053E-03  1.495252756378E-01 -1.649992174768E-01
C15 -3.458070040512E-02 -2.760156325689E-01  2.405216541561E-01
C16  3.458070040512E-02  2.760156325689E-01 -2.405216541561E-01
C17  3.003452639490E-02 -1.886220010024E-01  3.507773534640E-01
C18 -3.003452639490E-02  1.886220010024E-01 -3.507773534640E-01
H19  1.687555683959E-01  1.035236032595E-01  4.810090272498E-01
H20 -1.687555683959E-01 -1.035236032595E-01 -4.810090272498E-01
H21  2.075900714763E-01  3.362036731881E-01  3.541240929373E-01
H22 -2.075900714763E-01 -3.362036731881E-01 -3.541240929373E-01
H23  1.784684876488E-01  3.700721282098E-01  1.672130177943E-01
H24 -1.784684876488E-01 -3.700721282098E-01 -1.672130177943E-01
H25  1.402700607192E-01  4.081062419065E-01 -2.066110336819E-02
H26 -1.402700607192E-01 -4.081062419065E-01  2.066110336819E-02
H27 -1.047467732057E-01 -4.448783752953E-01  2.077690111932E-01
H28  1.047467732057E-01  4.448783752953E-01 -2.077690111932E-01
H29  1.262359171261E-02 -2.900967686949E-01  4.069416903525E-01
H30 -1.262359171261E-02  2.900967686949E-01 -4.069416903525E-01
C31 -4.571974768695E-01 -4.291466176214E-01  3.814959962953E-01
C32  4.571974768695E-01  4.291466176214E-01 -3.814959962953E-01
C33  4.832841536530E-01 -3.080145922736E-01  2.960852151021E-01
C34 -4.832841536530E-01  3.080145922736E-01 -2.960852151021E-01
C35 -4.999507237720E-01 -4.065893369366E-01  1.937989460543E-01
C36  4.999507237720E-01  4.065893369366E-01 -1.937989460543E-01
C37  4.431151907196E-01 -2.858829191396E-01  1.060044288059E-01
C38 -4.431151907196E-01  2.858829191396E-01 -1.060044288059E-01
C39  4.611104603133E-01 -3.840405956290E-01  5.814530793170E-03
C40 -4.611104603133E-01  3.840405956290E-01 -5.814530793170E-03
C41  4.039603810412E-01 -2.631895011294E-01 -8.355481126333E-02
C42 -4.039603810412E-01  2.631895011294E-01  8.355481126333E-02
C43 -4.214229763869E-01  3.619281905154E-01  1.823624214763E-01
C44  4.214229763869E-01 -3.619281905154E-01 -1.823624214763E-01
C45 -3.614364629686E-01  2.413581694817E-01  2.741891056186E-01
C46  3.614364629686E-01 -2.413581694817E-01 -2.741891056186E-01
C47 -3.778378292924E-01  3.428255085200E-01  3.706981523468E-01
C48  3.778378292924E-01 -3.428255085200E-01 -3.706981523468E-01
H49 -4.700226786590E-01 -3.504192998961E-01  4.588422227035E-01
H50  4.700226786590E-01  3.504192998961E-01 -4.588422227035E-01
H51  4.232542125408E-01 -1.341489086402E-01  3.046405267966E-01
H52 -4.232542125408E-01  1.341489086402E-01 -3.046405267966E-01
H53  3.843323863359E-01 -1.112639539039E-01  1.149171013716E-01
H54 -3.843323863359E-01  1.112639539039E-01 -1.149171013716E-01
H55  3.446269688772E-01 -8.879998660416E-02 -7.476815588411E-02
H56 -3.446269688772E-01  8.879998660416E-02  7.476815588411E-02
H57 -3.024157319257E-01  6.699798977501E-02  2.650374096632E-01
H58  3.024157319257E-01 -6.699798977501E-02 -2.650374096632E-01
H59 -3.302487260366E-01  2.500075795342E-01  4.402959181028E-01
H60  3.302487260366E-01 -2.500075795342E-01 -4.402959181028E-01


#===END

data_OPT_STEP_12

_symmetry_space_group_name_H-M 'P 1'
_cell_length_a      7.29823195
_cell_length_b      5.86408850
_cell_length_c     13.28260380
_cell_angle_alpha  100.701725
_cell_angle_beta  113.339425
_cell_angle_gamma   85.766303

loop_
_atom_site_label
_atom_site_fract_x
_atom_site_fract_y
_atom_site_fract_z
C1  1.192433734589E-01  3.549181261387E-02  3.929895377620E-01
C2 -1.192433734589E-01 -3.549181261387E-02 -3.929895377620E-01
C3  1.423894697252E-01  1.642112243317E-01  3.235290924443E-01
C4 -1.423894697252E-01 -1.642112243317E-01 -3.235290924443E-01
C5  8.109382355288E-02  7.648154451135E-02  2.074778930773E-01
C6 -8.109382355288E-02 -7.648154451135E-02 -2.074778930773E-01
C7  1.078319213119E-01  2.010649801898E-01  1.353123940845E-01
C8 -1.078319213119E-01 -2.010649801898E-01 -1.353123940845E-01
C9  4.605174480233E-02  1.127892384461E-01  2.127749686441E-02
C10 -4.605174480233E-02 -1.127892384461E-01 -2.127749686441E-02
C11  7.191834224448E-02  2.375807306251E-01 -5.253521867720E-02
C12 -7.191834224448E-02 -2.375807306251E-01  5.253521867720E-02
C13 -9.750090092703E-03 -1.494255353714E-01  1.650271615356E-01
C14  9.750090092703E-03  1.494255353714E-01 -1.650271615356E-01
C15 -3.426477456650E-02 -2.760857240731E-01  2.405756842922E-01
C16  3.426477456650E-02  2.760857240731E-01 -2.405756842922E-01
C17  2.997120932094E-02 -1.883593695347E-01  3.508949726610E-01
C18 -2.997120932094E-02  1.883593695347E-01 -3.508949726610E-01
H19  1.689845700429E-01  1.035526480554E-01  4.813000953705E-01
H20 -1.689845700429E-01 -1.035526480554E-01 -4.813000953705E-01
H21  2.077483799280E-01  3.362682853757E-01  3.543583936879E-01
H22 -2.077483799280E-01 -3.362682853757E-01 -3.543583936879E-01
H23  1.786144136958E-01  3.701225171294E-01  1.673780716335E-01
H24 -1.786144136958E-01 -3.701225171294E-01 -1.673780716335E-01
H25  1.409218544001E-01  4.076083597718E-01 -2.051045692477E-02
H26 -1.409218544001E-01 -4.076083597718E-01  2.051045692477E-02
H27 -1.043509139100E-01 -4.451018093248E-01  2.078327710161E-01
H28  1.043509139100E-01  4.451018093248E-01 -2.078327710161E-01
H29  1.204496424461E-02 -2.895865448665E-01  4.070028761021E-01
H30 -1.204496424461E-02  2.895865448665E-01 -4.070028761021E-01
C31 -4.568497104408E-01 -4.291040794325E-01  3.817510585964E-01
C32  4.568497104408E-01  4.291040794325E-01 -3.817510585964E-01
C33  4.834739200895E-01 -3.080598184653E-01  2.963022050768E-01
C34 -4.834739200895E-01  3.080598184653E-01 -2.963022050768E-01
C35  4.997336522153E-01 -4.068744522398E-01  1.938261428474E-01
C36 -4.997336522153E-01  4.068744522398E-01 -1.938261428474E-01
C37  4.425516699498E-01 -2.862669781100E-01  1.059732354591E-01
C38 -4.425516699498E-01  2.862669781100E-01 -1.059732354591E-01
C39  4.610265132186E-01 -3.840602058154E-01  5.842846362196E-03
C40 -4.610265132186E-01  3.840602058154E-01 -5.842846362196E-03
C41  4.040913070847E-01 -2.630336282619E-01 -8.349030584820E-02
C42 -4.040913070847E-01  2.630336282619E-01  8.349030584820E-02
C43 -4.216564097540E-01  3.616784527859E-01  1.823385928669E-01
C44  4.216564097540E-01 -3.616784527859E-01 -1.823385928669E-01
C45 -3.611031434882E-01  2.413903488068E-01  2.743110407197E-01
C46  3.611031434882E-01 -2.413903488068E-01 -2.743110407197E-01
C47 -3.776519574591E-01  3.428126499651E-01  3.708482374419E-01
C48  3.776519574591E-01 -3.428126499651E-01 -3.708482374419E-01
H49 -4.697299999541E-01 -3.504135181500E-01  4.591466296512E-01
H50  4.697299999541E-01  3.504135181500E-01 -4.591466296512E-01
H51  4.236108838452E-01 -1.340881231204E-01  3.049349580387E-01
H52 -4.236108838452E-01  1.340881231204E-01 -3.049349580387E-01
H53  3.833196487917E-01 -1.118730043457E-01  1.148382851174E-01
H54 -3.833196487917E-01  1.118730043457E-01 -1.148382851174E-01
H55  3.447658558024E-01 -8.861161498553E-02 -7.465161747532E-02
H56 -3.447658558024E-01  8.861161498553E-02  7.465161747532E-02
H57 -3.014146917169E-01  6.734314460098E-02  2.652825069513E-01
H58  3.014146917169E-01 -6.734314460098E-02 -2.652825069513E-01
H59 -3.303994785296E-01  2.498095218033E-01  4.403818962040E-01
H60  3.303994785296E-01 -2.498095218033E-01 -4.403818962040E-01


#===END

data_OPT_STEP_13

_symmetry_space_group_name_H-M 'P 1'
_cell_length_a      7.30475612
_cell_length_b      5.86887983
_cell_length_c     13.27368905
_cell_angle_alpha  100.730369
_cell_angle_beta  113.350017
_cell_angle_gamma   85.879689

loop_
_atom_site_label
_atom_site_fract_x
_atom_site_fract_y
_atom_site_fract_z
C1  1.194001625871E-01  3.557227885926E-02  3.933901613220E-01
C2 -1.194001625871E-01 -3.557227885926E-02 -3.933901613220E-01
C3  1.426404034035E-01  1.642106193255E-01  3.239261838679E-01
C4 -1.426404034035E-01 -1.642106193255E-01 -3.239261838679E-01
C5  8.099954281060E-02  7.665641344896E-02  2.076907561749E-01
C6 -8.099954281060E-02 -7.665641344896E-02 -2.076907561749E-01
C7  1.074643851302E-01  2.014040162732E-01  1.355083254017E-01
C8 -1.074643851302E-01 -2.014040162732E-01 -1.355083254017E-01
C9  4.572246936899E-02  1.130068401257E-01  2.134712563014E-02
C10 -4.572246936899E-02 -1.130068401257E-01 -2.134712563014E-02
C11  7.089852052038E-02  2.382476791124E-01 -5.251956236890E-02
C12 -7.089852052038E-02 -2.382476791124E-01  5.251956236890E-02
C13 -9.503512451221E-03 -1.495787099024E-01  1.650967640579E-01
C14  9.503512451221E-03  1.495787099024E-01 -1.650967640579E-01
C15 -3.400614191214E-02 -2.763123254994E-01  2.406253485742E-01
C16  3.400614191214E-02  2.763123254994E-01 -2.406253485742E-01
C17  2.969578258688E-02 -1.880810653812E-01  3.510937513376E-01
C18 -2.969578258688E-02  1.880810653812E-01 -3.510937513376E-01
H19  1.683364073901E-01  1.041320837120E-01  4.817333136399E-01
H20 -1.683364073901E-01 -1.041320837120E-01 -4.817333136399E-01
H21  2.078715686856E-01  3.364049912575E-01  3.547674200521E-01
H22 -2.078715686856E-01 -3.364049912575E-01 -3.547674200521E-01
H23  1.780976765127E-01  3.706803713814E-01  1.676630642072E-01
H24 -1.780976765127E-01 -3.706803713814E-01 -1.676630642072E-01
H25  1.394804354356E-01  4.085419083996E-01 -2.043065924774E-02
H26 -1.394804354356E-01 -4.085419083996E-01  2.043065924774E-02
H27 -1.041829715255E-01 -4.454188673550E-01  2.078563885002E-01
H28  1.041829715255E-01  4.454188673550E-01 -2.078563885002E-01
H29  1.054811139278E-02 -2.886289217755E-01  4.070970453392E-01
H30 -1.054811139278E-02  2.886289217755E-01 -4.070970453392E-01
C31 -4.564362277239E-01 -4.291071128804E-01  3.821721608165E-01
C32  4.564362277239E-01  4.291071128804E-01 -3.821721608165E-01
C33  4.839164361137E-01 -3.083165594660E-01  2.966840498342E-01
C34 -4.839164361137E-01  3.083165594660E-01 -2.966840498342E-01
C35  4.994581301805E-01 -4.073012939932E-01  1.939441203470E-01
C36 -4.994581301805E-01  4.073012939932E-01 -1.939441203470E-01
C37  4.424130770013E-01 -2.867760583191E-01  1.060793198739E-01
C38 -4.424130770013E-01  2.867760583191E-01 -1.060793198739E-01
C39  4.605966880709E-01 -3.844707347373E-01  5.778745243497E-03
C40 -4.605966880709E-01  3.844707347373E-01 -5.778745243497E-03
C41  4.035417498889E-01 -2.637008079899E-01 -8.364230690292E-02
C42 -4.035417498889E-01  2.637008079899E-01  8.364230690292E-02
C43 -4.215778553952E-01  3.618594356337E-01  1.824776231488E-01
C44  4.215778553952E-01 -3.618594356337E-01 -1.824776231488E-01
C45 -3.611165028848E-01  2.417003786013E-01  2.744785132138E-01
C46  3.611165028848E-01 -2.417003786013E-01 -2.744785132138E-01
C47 -3.774315639655E-01  3.431762622126E-01  3.711725747264E-01
C48  3.774315639655E-01 -3.431762622126E-01 -3.711725747264E-01
H49 -4.692107380885E-01 -3.505596923936E-01  4.596717185352E-01
H50  4.692107380885E-01  3.505596923936E-01 -4.596717185352E-01
H51  4.240834823969E-01 -1.346430789982E-01  3.053407994161E-01
H52 -4.240834823969E-01  1.346430789982E-01 -3.053407994161E-01
H53  3.831298076852E-01 -1.127389775531E-01  1.149766874510E-01
H54 -3.831298076852E-01  1.127389775531E-01 -1.149766874510E-01
H55  3.430875397150E-01 -9.018251170925E-02 -7.501985136780E-02
H56 -3.430875397150E-01  9.018251170925E-02  7.501985136780E-02
H57 -3.010818790051E-01  6.815005006995E-02  2.655124219972E-01
H58  3.010818790051E-01 -6.815005006995E-02 -2.655124219972E-01
H59 -3.304602832829E-01  2.502299754764E-01  4.406941935359E-01
H60  3.304602832829E-01 -2.502299754764E-01 -4.406941935359E-01


#===END

data_OPT_STEP_14

_symmetry_space_group_name_H-M 'P 1'
_cell_length_a      7.30298659
_cell_length_b      5.87320746
_cell_length_c     13.25958834
_cell_angle_alpha  100.823604
_cell_angle_beta  113.399684
_cell_angle_gamma   85.793745

loop_
_atom_site_label
_atom_site_fract_x
_atom_site_fract_y
_atom_site_fract_z
C1  1.196369646615E-01  3.569642365043E-02  3.939787559961E-01
C2 -1.196369646615E-01 -3.569642365043E-02 -3.939787559961E-01
C3  1.429665466453E-01  1.641781365690E-01  3.245401896573E-01
C4 -1.429665466453E-01 -1.641781365690E-01 -3.245401896573E-01
C5  8.124100939081E-02  7.670930840373E-02  2.080601106490E-01
C6 -8.124100939081E-02 -7.670930840373E-02 -2.080601106490E-01
C7  1.074727584594E-01  2.014062316053E-01  1.358555249089E-01
C8 -1.074727584594E-01 -2.014062316053E-01 -1.358555249089E-01
C9  4.614671816364E-02  1.126681834876E-01  2.151932836723E-02
C10 -4.614671816364E-02 -1.126681834876E-01 -2.151932836723E-02
C11  7.169369402208E-02  2.374893022263E-01 -5.231679845449E-02
C12 -7.169369402208E-02 -2.374893022263E-01  5.231679845449E-02
C13 -9.842278801727E-03 -1.491164834220E-01  1.651529557940E-01
C14  9.842278801727E-03  1.491164834220E-01 -1.651529557940E-01
C15 -3.381342185947E-02 -2.760482323600E-01  2.407286728734E-01
C16  3.381342185947E-02  2.760482323600E-01 -2.407286728734E-01
C17  2.963025011707E-02 -1.876228108127E-01  3.514076477318E-01
C18 -2.963025011707E-02  1.876228108127E-01 -3.514076477318E-01
H19  1.678755964987E-01  1.046140733156E-01  4.824184385765E-01
H20 -1.678755964987E-01 -1.046140733156E-01 -4.824184385765E-01
H21  2.077375318371E-01  3.365625088531E-01  3.553874948338E-01
H22 -2.077375318371E-01 -3.365625088531E-01 -3.553874948338E-01
H23  1.779714856602E-01  3.706836435479E-01  1.681301423214E-01
H24 -1.779714856602E-01 -3.706836435479E-01 -1.681301423214E-01
H25  1.404095402519E-01  4.075970164736E-01 -2.008408159681E-02
H26 -1.404095402519E-01 -4.075970164736E-01  2.008408159681E-02
H27 -1.040568115768E-01 -4.450820480892E-01  2.078574413753E-01
H28  1.040568115768E-01  4.450820480892E-01 -2.078574413753E-01
H29  9.432497381460E-03 -2.875583904340E-01  4.072914026232E-01
H30 -9.432497381460E-03  2.875583904340E-01 -4.072914026232E-01
C31 -4.562689382454E-01 -4.292546816516E-01  3.826952788897E-01
C32  4.562689382454E-01  4.292546816516E-01 -3.826952788897E-01
C33  4.836045771434E-01 -3.086626525020E-01  2.970847016760E-01
C34 -4.836045771434E-01  3.086626525020E-01 -2.970847016760E-01
C35  4.990246938481E-01 -4.076679507978E-01  1.941324894214E-01
C36 -4.990246938481E-01  4.076679507978E-01 -1.941324894214E-01
C37  4.419097525500E-01 -2.870881110167E-01  1.062335212622E-01
C38 -4.419097525500E-01  2.870881110167E-01 -1.062335212622E-01
C39  4.604921297102E-01 -3.845001684622E-01  5.852631013851E-03
C40 -4.604921297102E-01  3.845001684622E-01 -5.852631013851E-03
C41  4.038797021250E-01 -2.633807103462E-01 -8.349775632599E-02
C42 -4.038797021250E-01  2.633807103462E-01  8.349775632599E-02
C43 -4.222506348919E-01  3.613132828056E-01  1.824294328767E-01
C44  4.222506348919E-01 -3.613132828056E-01 -1.824294328767E-01
C45 -3.610671066596E-01  2.415273263239E-01  2.746167420450E-01
C46  3.610671066596E-01 -2.415273263239E-01 -2.746167420450E-01
C47 -3.773562860014E-01  3.430153361663E-01  3.715060659191E-01
C48  3.773562860014E-01 -3.430153361663E-01 -3.715060659191E-01
H49 -4.688460149599E-01 -3.506689279526E-01  4.603946778063E-01
H50  4.688460149599E-01  3.506689279526E-01 -4.603946778063E-01
H51  4.234472611956E-01 -1.351516652541E-01  3.057974259213E-01
H52 -4.234472611956E-01  1.351516652541E-01 -3.057974259213E-01
H53  3.823406598481E-01 -1.131716644452E-01  1.152025749888E-01
H54 -3.823406598481E-01  1.131716644452E-01 -1.152025749888E-01
H55  3.431428943030E-01 -9.000171125076E-02 -7.481088809312E-02
H56 -3.431428943030E-01  9.000171125076E-02  7.481088809312E-02
H57 -3.005534559613E-01  6.820346654419E-02  2.656421736937E-01
H58  3.005534559613E-01 -6.820346654419E-02 -2.656421736937E-01
H59 -3.298893744680E-01  2.503231139800E-01  4.411545442957E-01
H60  3.298893744680E-01 -2.503231139800E-01 -4.411545442957E-01


#===END

data_OPT_STEP_15

_symmetry_space_group_name_H-M 'P 1'
_cell_length_a      7.31135066
_cell_length_b      5.87917093
_cell_length_c     13.23813769
_cell_angle_alpha  100.923739
_cell_angle_beta  113.366971
_cell_angle_gamma   86.103962

loop_
_atom_site_label
_atom_site_fract_x
_atom_site_fract_y
_atom_site_fract_z
C1  1.196197736753E-01  3.502454247150E-02  3.946470875914E-01
C2 -1.196197736753E-01 -3.502454247150E-02 -3.946470875914E-01
C3  1.427702093663E-01  1.641217763206E-01  3.253172092457E-01
C4 -1.427702093663E-01 -1.641217763206E-01 -3.253172092457E-01
C5  8.166542785590E-02  7.625672713905E-02  2.085521742132E-01
C6 -8.166542785590E-02 -7.625672713905E-02 -2.085521742132E-01
C7  1.076656971027E-01  2.015394205034E-01  1.364528153309E-01
C8 -1.076656971027E-01 -2.015394205034E-01 -1.364528153309E-01
C9  4.597427017755E-02  1.130394354854E-01  2.175836502480E-02
C10 -4.597427017755E-02 -1.130394354854E-01 -2.175836502480E-02
C11  7.155045358714E-02  2.382884008731E-01 -5.196042104080E-02
C12 -7.155045358714E-02 -2.382884008731E-01  5.196042104080E-02
C13 -9.458368134479E-03 -1.500669655796E-01  1.651479122770E-01
C14  9.458368134479E-03  1.500669655796E-01 -1.651479122770E-01
C15 -3.366260818074E-02 -2.773615842122E-01  2.405764042358E-01
C16  3.366260818074E-02  2.773615842122E-01 -2.405764042358E-01
C17  2.948883399649E-02 -1.887352696003E-01  3.515651118060E-01
C18 -2.948883399649E-02  1.887352696003E-01 -3.515651118060E-01
H19  1.685628855469E-01  1.034180680938E-01  4.834014087206E-01
H20 -1.685628855469E-01 -1.034180680938E-01 -4.834014087206E-01
H21  2.075224598192E-01  3.368692048687E-01  3.563984537102E-01
H22 -2.075224598192E-01 -3.368692048687E-01 -3.563984537102E-01
H23  1.779765869746E-01  3.712864494158E-01  1.690670015004E-01
H24 -1.779765869746E-01 -3.712864494158E-01 -1.690670015004E-01
H25  1.412647960647E-01  4.081764387029E-01 -1.930327547520E-02
H26 -1.412647960647E-01 -4.081764387029E-01  1.930327547520E-02
H27 -1.038686776435E-01 -4.467151173891E-01  2.074521068141E-01
H28  1.038686776435E-01  4.467151173891E-01 -2.074521068141E-01
H29  9.211796720291E-03 -2.890595701090E-01  4.073085073602E-01
H30 -9.211796720291E-03  2.890595701090E-01 -4.073085073602E-01
C31 -4.559349138176E-01 -4.293889765457E-01  3.834489232664E-01
C32  4.559349138176E-01  4.293889765457E-01 -3.834489232664E-01
C33  4.840133658756E-01 -3.091967460894E-01  2.978221733617E-01
C34 -4.840133658756E-01  3.091967460894E-01 -2.978221733617E-01
C35  4.984213702037E-01 -4.083972561937E-01  1.943952431113E-01
C36 -4.984213702037E-01  4.083972561937E-01 -1.943952431113E-01
C37  4.405361687286E-01 -2.886647354306E-01  1.062830479910E-01
C38 -4.405361687286E-01  2.886647354306E-01 -1.062830479910E-01
C39  4.602781371778E-01 -3.849981923197E-01  5.937269099093E-03
C40 -4.602781371778E-01  3.849981923197E-01 -5.937269099093E-03
C41  4.044281851669E-01 -2.638303310916E-01 -8.328520769859E-02
C42 -4.044281851669E-01  2.638303310916E-01  8.328520769859E-02
C43 -4.223645650900E-01  3.616356667364E-01  1.825716131762E-01
C44  4.223645650900E-01 -3.616356667364E-01 -1.825716131762E-01
C45 -3.604660814120E-01  2.426608272240E-01  2.749523487411E-01
C46  3.604660814120E-01 -2.426608272240E-01 -2.749523487411E-01
C47 -3.770239832734E-01  3.436805778835E-01  3.720264572258E-01
C48  3.770239832734E-01 -3.436805778835E-01 -3.720264572258E-01
H49 -4.678199169802E-01 -3.508543651550E-01  4.615048300977E-01
H50  4.678199169802E-01  3.508543651550E-01 -4.615048300977E-01
H51  4.244175575124E-01 -1.359883293717E-01  3.068063454523E-01
H52 -4.244175575124E-01  1.359883293717E-01 -3.068063454523E-01
H53  3.794300976668E-01 -1.161493970157E-01  1.150744765250E-01
H54 -3.794300976668E-01  1.161493970157E-01 -1.150744765250E-01
H55  3.438639686276E-01 -9.095811091819E-02 -7.438901303211E-02
H56 -3.438639686276E-01  9.095811091819E-02  7.438901303211E-02
H57 -2.987503447173E-01  7.057580020757E-02  2.660914305541E-01
H58  2.987503447173E-01 -7.057580020757E-02 -2.660914305541E-01
H59 -3.296345629409E-01  2.512823263316E-01  4.416866827238E-01
H60  3.296345629409E-01 -2.512823263316E-01 -4.416866827238E-01


#===END

data_OPT_STEP_16

_symmetry_space_group_name_H-M 'P 1'
_cell_length_a      7.31082085
_cell_length_b      5.87664783
_cell_length_c     13.21514124
_cell_angle_alpha  101.145937
_cell_angle_beta  113.466124
_cell_angle_gamma   85.676482

loop_
_atom_site_label
_atom_site_fract_x
_atom_site_fract_y
_atom_site_fract_z
C1  1.190665904029E-01  3.622916524275E-02  3.954274303922E-01
C2 -1.190665904029E-01 -3.622916524275E-02 -3.954274303922E-01
C3  1.432093371718E-01  1.642441119901E-01  3.262075634329E-01
C4 -1.432093371718E-01 -1.642441119901E-01 -3.262075634329E-01
C5  8.146315369620E-02  7.680650070124E-02  2.090570838142E-01
C6 -8.146315369620E-02 -7.680650070124E-02 -2.090570838142E-01
C7  1.081550977015E-01  2.010921759107E-01  1.369902262598E-01
C8 -1.081550977015E-01 -2.010921759107E-01 -1.369902262598E-01
C9  4.534574920973E-02  1.132545256425E-01  2.186433008975E-02
C10 -4.534574920973E-02 -1.132545256425E-01 -2.186433008975E-02
C11  7.080271912738E-02  2.381011344281E-01 -5.190243325177E-02
C12 -7.080271912738E-02 -2.381011344281E-01  5.190243325177E-02
C13 -9.603127126365E-03 -1.492140318237E-01  1.653470875100E-01
C14  9.603127126365E-03  1.492140318237E-01 -1.653470875100E-01
C15 -3.419564846090E-02 -2.756958087187E-01  2.407344385242E-01
C16  3.419564846090E-02  2.756958087187E-01 -2.407344385242E-01
C17  2.830956903878E-02 -1.866565024772E-01  3.519597700835E-01
C18 -2.830956903878E-02  1.866565024772E-01 -3.519597700835E-01
H19  1.680090842186E-01  1.045548692788E-01  4.844408108896E-01
H20 -1.680090842186E-01 -1.045548692788E-01 -4.844408108896E-01
H21  2.076011535900E-01  3.369592048529E-01  3.573260013223E-01
H22 -2.076011535900E-01 -3.369592048529E-01 -3.573260013223E-01
H23  1.780226143239E-01  3.707806240831E-01  1.697659378501E-01
H24 -1.780226143239E-01 -3.707806240831E-01 -1.697659378501E-01
H25  1.404893246249E-01  4.077467943704E-01 -1.908328728769E-02
H26 -1.404893246249E-01 -4.077467943704E-01  1.908328728769E-02
H27 -1.040461536574E-01 -4.450627363324E-01  2.074642374107E-01
H28  1.040461536574E-01  4.450627363324E-01 -2.074642374107E-01
H29  7.737717025804E-03 -2.866694489805E-01  4.076500710888E-01
H30 -7.737717025804E-03  2.866694489805E-01 -4.076500710888E-01
C31 -4.554335964804E-01 -4.292011253746E-01  3.843832013406E-01
C32  4.554335964804E-01  4.292011253746E-01 -3.843832013406E-01
C33  4.842781641418E-01 -3.084621378439E-01  2.987247386106E-01
C34 -4.842781641418E-01  3.084621378439E-01 -2.987247386106E-01
C35  4.982434372127E-01 -4.082414559621E-01  1.948493569416E-01
C36 -4.982434372127E-01  4.082414559621E-01 -1.948493569416E-01
C37  4.406068401701E-01 -2.878365378498E-01  1.068066750888E-01
C38 -4.406068401701E-01  2.878365378498E-01 -1.068066750888E-01
C39  4.605512589983E-01 -3.844188922501E-01  6.178443623741E-03
C40 -4.605512589983E-01  3.844188922501E-01 -6.178443623741E-03
C41  4.035773742546E-01 -2.633610583503E-01 -8.326214710917E-02
C42 -4.035773742546E-01  2.633610583503E-01  8.326214710917E-02
C43 -4.223099491073E-01  3.610142890759E-01  1.826882934791E-01
C44  4.223099491073E-01 -3.610142890759E-01 -1.826882934791E-01
C45 -3.601615040573E-01  2.417116071093E-01  2.751203550499E-01
C46  3.601615040573E-01 -2.417116071093E-01 -2.751203550499E-01
C47 -3.765370884517E-01  3.430582847618E-01  3.725778814794E-01
C48  3.765370884517E-01 -3.430582847618E-01 -3.725778814794E-01
H49 -4.672895883490E-01 -3.504208885799E-01  4.627384097918E-01
H50  4.672895883490E-01  3.504208885799E-01 -4.627384097918E-01
H51  4.251100488579E-01 -1.343741559366E-01  3.081186347202E-01
H52 -4.251100488579E-01  1.343741559366E-01 -3.081186347202E-01
H53  3.793079961438E-01 -1.147207410126E-01  1.158422451718E-01
H54 -3.793079961438E-01  1.147207410126E-01 -1.158422451718E-01
H55  3.417616866241E-01 -9.049037121540E-02 -7.436868323833E-02
H56 -3.417616866241E-01  9.049037121540E-02  7.436868323833E-02
H57 -2.975828105431E-01  6.939881057235E-02  2.661712598582E-01
H58  2.975828105431E-01 -6.939881057235E-02 -2.661712598582E-01
H59 -3.297525476831E-01  2.499469466704E-01  4.420658825053E-01
H60  3.297525476831E-01 -2.499469466704E-01 -4.420658825053E-01


#===END

data_OPT_STEP_17

_symmetry_space_group_name_H-M 'P 1'
_cell_length_a      7.31293602
_cell_length_b      5.87798344
_cell_length_c     13.21215505
_cell_angle_alpha  101.144977
_cell_angle_beta  113.452466
_cell_angle_gamma   85.738583

loop_
_atom_site_label
_atom_site_fract_x
_atom_site_fract_y
_atom_site_fract_z
C1  1.190478688848E-01  3.580853352585E-02  3.954618316331E-01
C2 -1.190478688848E-01 -3.580853352585E-02 -3.954618316331E-01
C3  1.432500936365E-01  1.638906976497E-01  3.262715100611E-01
C4 -1.432500936365E-01 -1.638906976497E-01 -3.262715100611E-01
C5  8.111060922163E-02  7.680283430201E-02  2.090609405256E-01
C6 -8.111060922163E-02 -7.680283430201E-02 -2.090609405256E-01
C7  1.081642010803E-01  2.009951482105E-01  1.370555451608E-01
C8 -1.081642010803E-01 -2.009951482105E-01 -1.370555451608E-01
C9  4.575167465462E-02  1.130114617964E-01  2.193193152746E-02
C10 -4.575167465462E-02 -1.130114617964E-01 -2.193193152746E-02
C11  7.165112441134E-02  2.377184455041E-01 -5.176132548607E-02
C12 -7.165112441134E-02 -2.377184455041E-01  5.176132548607E-02
C13 -1.015151123871E-02 -1.491215793974E-01  1.652576123105E-01
C14  1.015151123871E-02  1.491215793974E-01 -1.652576123105E-01
C15 -3.438663960188E-02 -2.759783159253E-01  2.406675198574E-01
C16  3.438663960188E-02  2.759783159253E-01 -2.406675198574E-01
C17  2.837085028105E-02 -1.871671182503E-01  3.519446011144E-01
C18 -2.837085028105E-02  1.871671182503E-01 -3.519446011144E-01
H19  1.676838768151E-01  1.043019154731E-01  4.844766444899E-01
H20 -1.676838768151E-01 -1.043019154731E-01 -4.844766444899E-01
H21  2.077349137723E-01  3.365799739206E-01  3.574744365695E-01
H22 -2.077349137723E-01 -3.365799739206E-01 -3.574744365695E-01
H23  1.780109826875E-01  3.707287702389E-01  1.698896958133E-01
H24 -1.780109826875E-01 -3.707287702389E-01 -1.698896958133E-01
H25  1.416356134809E-01  4.072263932452E-01 -1.885629833443E-02
H26 -1.416356134809E-01 -4.072263932452E-01  1.885629833443E-02
H27 -1.042011378433E-01 -4.453720521769E-01  2.073202830745E-01
H28  1.042011378433E-01  4.453720521769E-01 -2.073202830745E-01
H29  7.874729057225E-03 -2.872762754061E-01  4.076289532885E-01
H30 -7.874729057225E-03  2.872762754061E-01 -4.076289532885E-01
C31 -4.552304126091E-01 -4.290294576385E-01  3.845211974194E-01
C32  4.552304126091E-01  4.290294576385E-01 -3.845211974194E-01
C33  4.842591120998E-01 -3.085479928197E-01  2.987958391444E-01
C34 -4.842591120998E-01  3.085479928197E-01 -2.987958391444E-01
C35  4.985568635886E-01 -4.080673971922E-01  1.949715073440E-01
C36 -4.985568635886E-01  4.080673971922E-01 -1.949715073440E-01
C37  4.411619063874E-01 -2.876487103810E-01  1.069610331314E-01
C38 -4.411619063874E-01  2.876487103810E-01 -1.069610331314E-01
C39  4.605706453509E-01 -3.845091313397E-01  6.173681018885E-03
C40 -4.605706453509E-01  3.845091313397E-01 -6.173681018885E-03
C41  4.034871626826E-01 -2.636460605882E-01 -8.331030292351E-02
C42 -4.034871626826E-01  2.636460605882E-01  8.331030292351E-02
C43 -4.221097396002E-01  3.613185375485E-01  1.827868344020E-01
C44  4.221097396002E-01 -3.613185375485E-01 -1.827868344020E-01
C45 -3.603726147887E-01  2.418896208301E-01  2.751443719917E-01
C46  3.603726147887E-01 -2.418896208301E-01 -2.751443719917E-01
C47 -3.764425651122E-01  3.433512563539E-01  3.726961462206E-01
C48  3.764425651122E-01 -3.433512563539E-01 -3.726961462206E-01
H49 -4.670720260490E-01 -3.502740467068E-01  4.628943673717E-01
H50  4.670720260490E-01  3.502740467068E-01 -4.628943673717E-01
H51  4.247442554503E-01 -1.347754646190E-01  3.081200023654E-01
H52 -4.247442554503E-01  1.347754646190E-01 -3.081200023654E-01
H53  3.804363146568E-01 -1.143714388973E-01  1.161218328986E-01
H54 -3.804363146568E-01  1.143714388973E-01 -1.161218328986E-01
H55  3.419776675316E-01 -9.073959056250E-02 -7.435350044432E-02
H56 -3.419776675316E-01  9.073959056250E-02  7.435350044432E-02
H57 -2.983428218821E-01  6.943462224309E-02  2.660724155168E-01
H58  2.983428218821E-01 -6.943462224309E-02 -2.660724155168E-01
H59 -3.298178482089E-01  2.502380186681E-01  4.421651259755E-01
H60  3.298178482089E-01 -2.502380186681E-01 -4.421651259755E-01


#===END

data_OPT_STEP_18

_symmetry_space_group_name_H-M 'P 1'
_cell_length_a      7.31086065
_cell_length_b      5.88394717
_cell_length_c     13.21570660
_cell_angle_alpha  101.196363
_cell_angle_beta  113.519677
_cell_angle_gamma   85.577950

loop_
_atom_site_label
_atom_site_fract_x
_atom_site_fract_y
_atom_site_fract_z
C1  1.188816357932E-01  3.647846772148E-02  3.954606179504E-01
C2 -1.188816357932E-01 -3.647846772148E-02 -3.954606179504E-01
C3  1.422921818873E-01  1.646865949040E-01  3.261748682040E-01
C4 -1.422921818873E-01 -1.646865949040E-01 -3.261748682040E-01
C5  8.110894915029E-02  7.685750100967E-02  2.090413382595E-01
C6 -8.110894915029E-02 -7.685750100967E-02 -2.090413382595E-01
C7  1.075378072177E-01  2.011852582994E-01  1.369729996259E-01
C8 -1.075378072177E-01 -2.011852582994E-01 -1.369729996259E-01
C9  4.658186409256E-02  1.122643591001E-01  2.198207266836E-02
C10 -4.658186409256E-02 -1.122643591001E-01 -2.198207266836E-02
C11  7.150763198541E-02  2.372770075057E-01 -5.178814032699E-02
C12 -7.150763198541E-02 -2.372770075057E-01  5.178814032699E-02
C13 -9.670003198321E-03 -1.488952923845E-01  1.653006429633E-01
C14  9.670003198321E-03  1.488952923845E-01 -1.653006429633E-01
C15 -3.449438476394E-02 -2.750123186801E-01  2.406689129224E-01
C16  3.449438476394E-02  2.750123186801E-01 -2.406689129224E-01
C17  2.898787561423E-02 -1.866366170758E-01  3.520264944459E-01
C18 -2.898787561423E-02  1.866366170758E-01 -3.520264944459E-01
H19  1.669461919415E-01  1.054553331669E-01  4.844224341030E-01
H20 -1.669461919415E-01 -1.054553331669E-01 -4.844224341030E-01
H21  2.071537259369E-01  3.368421551559E-01  3.575552461968E-01
H22 -2.071537259369E-01 -3.368421551559E-01 -3.575552461968E-01
H23  1.777667546400E-01  3.703882089607E-01  1.698836240319E-01
H24 -1.777667546400E-01 -3.703882089607E-01 -1.698836240319E-01
H25  1.394039496636E-01  4.077082121131E-01 -1.902036815014E-02
H26 -1.394039496636E-01 -4.077082121131E-01  1.902036815014E-02
H27 -1.046665358110E-01 -4.439055491376E-01  2.071801028524E-01
H28  1.046665358110E-01  4.439055491376E-01 -2.071801028524E-01
H29  8.570530309709E-03 -2.863305087524E-01  4.077625318314E-01
H30 -8.570530309709E-03  2.863305087524E-01 -4.077625318314E-01
C31 -4.552866056699E-01 -4.291497341353E-01  3.844540798072E-01
C32  4.552866056699E-01  4.291497341353E-01 -3.844540798072E-01
C33  4.837895979760E-01 -3.088719851770E-01  2.986974990004E-01
C34 -4.837895979760E-01  3.088719851770E-01 -2.986974990004E-01
C35  4.989409268917E-01 -4.078835493852E-01  1.950557202511E-01
C36 -4.989409268917E-01  4.078835493852E-01 -1.950557202511E-01
C37  4.402285520623E-01 -2.881509499242E-01  1.068067216971E-01
C38 -4.402285520623E-01  2.881509499242E-01 -1.068067216971E-01
C39  4.595185279144E-01 -3.850460281280E-01  5.971322512548E-03
C40 -4.595185279144E-01  3.850460281280E-01 -5.971322512548E-03
C41  4.029412141195E-01 -2.638415856970E-01 -8.336139002005E-02
C42 -4.029412141195E-01  2.638415856970E-01  8.336139002005E-02
C43 -4.212005662437E-01  3.617605455503E-01  1.829403364288E-01
C44  4.212005662437E-01 -3.617605455503E-01 -1.829403364288E-01
C45 -3.597417335579E-01  2.420952215396E-01  2.751863446270E-01
C46  3.597417335579E-01 -2.420952215396E-01 -2.751863446270E-01
C47 -3.763206202434E-01  3.432728769756E-01  3.726144233992E-01
C48  3.763206202434E-01 -3.432728769756E-01 -3.726144233992E-01
H49 -4.669868086691E-01 -3.502420630143E-01  4.628379415223E-01
H50  4.669868086691E-01  3.502420630143E-01 -4.628379415223E-01
H51  4.233056706918E-01 -1.355815423426E-01  3.078718335883E-01
H52 -4.233056706918E-01  1.355815423426E-01 -3.078718335883E-01
H53  3.790734449839E-01 -1.150923360380E-01  1.159144451605E-01
H54 -3.790734449839E-01  1.150923360380E-01 -1.159144451605E-01
H55  3.421647743579E-01 -9.051120494266E-02 -7.420200384199E-02
H56 -3.421647743579E-01  9.051120494266E-02  7.420200384199E-02
H57 -2.987383472412E-01  6.908792885577E-02  2.658421636760E-01
H58  2.987383472412E-01 -6.908792885577E-02 -2.658421636760E-01
H59 -3.290420003503E-01  2.504305190665E-01  4.421920161166E-01
H60  3.290420003503E-01 -2.504305190665E-01 -4.421920161166E-01


#===END

data_OPT_STEP_19

_symmetry_space_group_name_H-M 'P 1'
_cell_length_a      7.31264385
_cell_length_b      5.87892128
_cell_length_c     13.21253978
_cell_angle_alpha  101.152056
_cell_angle_beta  113.462392
_cell_angle_gamma   85.708990

loop_
_atom_site_label
_atom_site_fract_x
_atom_site_fract_y
_atom_site_fract_z
C1  1.190258069946E-01  3.585703203912E-02  3.954660878992E-01
C2 -1.190258069946E-01 -3.585703203912E-02 -3.954660878992E-01
C3  1.429162721469E-01  1.640864171756E-01  3.262362329876E-01
C4 -1.429162721469E-01 -1.640864171756E-01 -3.262362329876E-01
C5  8.122150706025E-02  7.667386239122E-02  2.090624333437E-01
C6 -8.122150706025E-02 -7.667386239122E-02 -2.090624333437E-01
C7  1.079633278710E-01  2.010634654231E-01  1.370238448424E-01
C8 -1.079633278710E-01 -2.010634654231E-01 -1.370238448424E-01
C9  4.617159115223E-02  1.127019573445E-01  2.195816999914E-02
C10 -4.617159115223E-02 -1.127019573445E-01 -2.195816999914E-02
C11  7.168320039294E-02  2.376358814261E-01 -5.176432047439E-02
C12 -7.168320039294E-02 -2.376358814261E-01  5.176432047439E-02
C13 -9.952648273192E-03 -1.492009998861E-01  1.652738044416E-01
C14  9.952648273192E-03  1.492009998861E-01 -1.652738044416E-01
C15 -3.453239351713E-02 -2.757893754216E-01  2.406598679214E-01
C16  3.453239351713E-02  2.757893754216E-01 -2.406598679214E-01
C17  2.854481026557E-02 -1.871917976983E-01  3.519710704276E-01
C18 -2.854481026557E-02  1.871917976983E-01 -3.519710704276E-01
H19  1.675091813859E-01  1.044896694716E-01  4.844668567395E-01
H20 -1.675091813859E-01 -1.044896694716E-01 -4.844668567395E-01
H21  2.076192201073E-01  3.365859014366E-01  3.575279673785E-01
H22 -2.076192201073E-01 -3.365859014366E-01 -3.575279673785E-01
H23  1.779231134314E-01  3.706693413108E-01  1.698895110398E-01
H24 -1.779231134314E-01 -3.706693413108E-01 -1.698895110398E-01
H25  1.409238263580E-01  4.075288993747E-01 -1.890099944418E-02
H26 -1.409238263580E-01 -4.075288993747E-01  1.890099944418E-02
H27 -1.044263815586E-01 -4.450675896040E-01  2.072583919726E-01
H28  1.044263815586E-01  4.450675896040E-01 -2.072583919726E-01
H29  8.012961655465E-03 -2.871628260337E-01  4.076717642918E-01
H30 -8.012961655465E-03  2.871628260337E-01 -4.076717642918E-01
C31 -4.552217770624E-01 -4.290213037938E-01  3.845195787550E-01
C32  4.552217770624E-01  4.290213037938E-01 -3.845195787550E-01
C33  4.842245241918E-01 -3.085699162657E-01  2.987958108893E-01
C34 -4.842245241918E-01  3.085699162657E-01 -2.987958108893E-01
C35  4.988034140050E-01 -4.079239067473E-01  1.950320124485E-01
C36 -4.988034140050E-01  4.079239067473E-01 -1.950320124485E-01
C37  4.409921100072E-01 -2.877336132668E-01  1.069383191260E-01
C38 -4.409921100072E-01  2.877336132668E-01 -1.069383191260E-01
C39  4.602210407055E-01 -3.846943407189E-01  6.098681703338E-03
C40 -4.602210407055E-01  3.846943407189E-01 -6.098681703338E-03
C41  4.033769306553E-01 -2.636900418081E-01 -8.332922107180E-02
C42 -4.033769306553E-01  2.636900418081E-01  8.332922107180E-02
C43 -4.218342551984E-01  3.614778570424E-01  1.828514983261E-01
C44  4.218342551984E-01 -3.614778570424E-01 -1.828514983261E-01
C45 -3.601951693646E-01  2.419768931632E-01  2.751798798017E-01
C46  3.601951693646E-01 -2.419768931632E-01 -2.751798798017E-01
C47 -3.764871833739E-01  3.433224978181E-01  3.726780284239E-01
C48  3.764871833739E-01 -3.433224978181E-01 -3.726780284239E-01
H49 -4.669994567812E-01 -3.501971456198E-01  4.628964063996E-01
H50  4.669994567812E-01  3.501971456198E-01 -4.628964063996E-01
H51  4.244856043352E-01 -1.349113959168E-01  3.080832246411E-01
H52 -4.244856043352E-01  1.349113959168E-01 -3.080832246411E-01
H53  3.803089095801E-01 -1.144414060437E-01  1.161130777598E-01
H54 -3.803089095801E-01  1.144414060437E-01 -1.161130777598E-01
H55  3.420996657838E-01 -9.065391905132E-02 -7.431683681063E-02
H56 -3.420996657838E-01  9.065391905132E-02  7.431683681063E-02
H57 -2.986189746651E-01  6.928556837283E-02  2.660024908315E-01
H58  2.986189746651E-01 -6.928556837283E-02 -2.660024908315E-01
H59 -3.295781752764E-01  2.503393812995E-01  4.422080885505E-01
H60  3.295781752764E-01 -2.503393812995E-01 -4.422080885505E-01


#===END

data_OPT_STEP_20

_symmetry_space_group_name_H-M 'P 1'
_cell_length_a      7.31199964
_cell_length_b      5.88077341
_cell_length_c     13.21124906
_cell_angle_alpha  101.144926
_cell_angle_beta  113.462390
_cell_angle_gamma   85.728001

loop_
_atom_site_label
_atom_site_fract_x
_atom_site_fract_y
_atom_site_fract_z
C1  1.189856975513E-01  3.566351830141E-02  3.954995138123E-01
C2 -1.189856975513E-01 -3.566351830141E-02 -3.954995138123E-01
C3  1.426870219368E-01  1.640664217942E-01  3.262552526596E-01
C4 -1.426870219368E-01 -1.640664217942E-01 -3.262552526596E-01
C5  8.116532517300E-02  7.658397446728E-02  2.090768694440E-01
C6 -8.116532517300E-02 -7.658397446728E-02 -2.090768694440E-01
C7  1.077413367824E-01  2.011407426914E-01  1.370285088531E-01
C8 -1.077413367824E-01 -2.011407426914E-01 -1.370285088531E-01
C9  4.607729506318E-02  1.127563987876E-01  2.195881445505E-02
C10 -4.607729506318E-02 -1.127563987876E-01 -2.195881445505E-02
C11  7.185386119411E-02  2.375674465557E-01 -5.172717478058E-02
C12 -7.185386119411E-02 -2.375674465557E-01  5.172717478058E-02
C13 -1.002046936171E-02 -1.492416455774E-01  1.652591971490E-01
C14  1.002046936171E-02  1.492416455774E-01 -1.652591971490E-01
C15 -3.453320702855E-02 -2.759437222824E-01  2.406546169285E-01
C16  3.453320702855E-02  2.759437222824E-01 -2.406546169285E-01
C17  2.861797483346E-02 -1.874519985222E-01  3.519935966586E-01
C18 -2.861797483346E-02  1.874519985222E-01 -3.519935966586E-01
H19  1.674762074174E-01  1.042746982691E-01  4.845105331847E-01
H20 -1.674762074174E-01 -1.042746982691E-01 -4.845105331847E-01
H21  2.074938466407E-01  3.364786845769E-01  3.576350195607E-01
H22 -2.074938466407E-01 -3.364786845769E-01 -3.576350195607E-01
H23  1.778578733633E-01  3.706200874781E-01  1.699438360429E-01
H24 -1.778578733633E-01 -3.706200874781E-01 -1.699438360429E-01
H25  1.412824432367E-01  4.073281563982E-01 -1.882030382139E-02
H26 -1.412824432367E-01 -4.073281563982E-01  1.882030382139E-02
H27 -1.045195594375E-01 -4.451171425880E-01  2.071956355588E-01
H28  1.045195594375E-01  4.451171425880E-01 -2.071956355588E-01
H29  8.103449695958E-03 -2.874072829583E-01  4.077001474399E-01
H30 -8.103449695958E-03  2.874072829583E-01 -4.077001474399E-01
C31 -4.551978523826E-01 -4.290110126877E-01  3.845695254484E-01
C32  4.551978523826E-01  4.290110126877E-01 -3.845695254484E-01
C33  4.843125254279E-01 -3.085896942425E-01  2.988433349613E-01
C34 -4.843125254279E-01  3.085896942425E-01 -2.988433349613E-01
C35  4.989134356191E-01 -4.078842989494E-01  1.950770933740E-01
C36 -4.989134356191E-01  4.078842989494E-01 -1.950770933740E-01
C37  4.412972819048E-01 -2.876360533794E-01  1.070117803057E-01
C38 -4.412972819048E-01  2.876360533794E-01 -1.070117803057E-01
C39  4.603877141810E-01 -3.846649834438E-01  6.127767785724E-03
C40 -4.603877141810E-01  3.846649834438E-01 -6.127767785724E-03
C41  4.035860695253E-01 -2.636830097344E-01 -8.330443247645E-02
C42 -4.035860695253E-01  2.636830097344E-01  8.330443247645E-02
C43 -4.219883655573E-01  3.614722830255E-01  1.828488894483E-01
C44  4.219883655573E-01 -3.614722830255E-01 -1.828488894483E-01
C45 -3.603696652219E-01  2.420062929665E-01  2.751825493255E-01
C46  3.603696652219E-01 -2.420062929665E-01 -2.751825493255E-01
C47 -3.765187027504E-01  3.434007069843E-01  3.727251691300E-01
C48  3.765187027504E-01 -3.434007069843E-01 -3.727251691300E-01
H49 -4.668671247109E-01 -3.501463825394E-01  4.629706600482E-01
H50  4.668671247109E-01  3.501463825394E-01 -4.629706600482E-01
H51  4.245843601764E-01 -1.349997336033E-01  3.081235600034E-01
H52 -4.245843601764E-01  1.349997336033E-01 -3.081235600034E-01
H53  3.808687624383E-01 -1.142928492410E-01  1.162331369530E-01
H54 -3.808687624383E-01  1.142928492410E-01 -1.162331369530E-01
H55  3.423339192365E-01 -9.070975928359E-02 -7.429520104822E-02
H56 -3.423339192365E-01  9.070975928359E-02  7.429520104822E-02
H57 -2.992153122449E-01  6.917553657801E-02  2.659204892993E-01
H58  2.992153122449E-01 -6.917553657801E-02 -2.659204892993E-01
H59 -3.292109661015E-01  2.506599164404E-01  4.423573370687E-01
H60  3.292109661015E-01 -2.506599164404E-01 -4.423573370687E-01


#===END

data_OPT_STEP_21

_symmetry_space_group_name_H-M 'P 1'
_cell_length_a      7.30932516
_cell_length_b      5.88416516
_cell_length_c     13.20759281
_cell_angle_alpha  101.142457
_cell_angle_beta  113.474612
_cell_angle_gamma   85.744667

loop_
_atom_site_label
_atom_site_fract_x
_atom_site_fract_y
_atom_site_fract_z
C1  1.188666511701E-01  3.483081678037E-02  3.955485010656E-01
C2 -1.188666511701E-01 -3.483081678037E-02 -3.955485010656E-01
C3  1.425777594606E-01  1.634192257923E-01  3.263685004269E-01
C4 -1.425777594606E-01 -1.634192257923E-01 -3.263685004269E-01
C5  8.098326668084E-02  7.623128587798E-02  2.091231180022E-01
C6 -8.098326668084E-02 -7.623128587798E-02 -2.091231180022E-01
C7  1.077189739490E-01  2.008806476507E-01  1.371516480045E-01
C8 -1.077189739490E-01 -2.008806476507E-01 -1.371516480045E-01
C9  4.616354090281E-02  1.126769449085E-01  2.203141207565E-02
C10 -4.616354090281E-02 -1.126769449085E-01 -2.203141207565E-02
C11  7.197563934196E-02  2.376660329182E-01 -5.158493335969E-02
C12 -7.197563934196E-02 -2.376660329182E-01  5.158493335969E-02
C13 -1.029085444476E-02 -1.494570005290E-01  1.651663209930E-01
C14  1.029085444476E-02  1.494570005290E-01 -1.651663209930E-01
C15 -3.476030758129E-02 -2.764200346339E-01  2.405089050429E-01
C16  3.476030758129E-02  2.764200346339E-01 -2.405089050429E-01
C17  2.859807155108E-02 -1.883032966255E-01  3.519277120109E-01
C18 -2.859807155108E-02  1.883032966255E-01 -3.519277120109E-01
H19  1.674057895317E-01  1.032633557243E-01  4.846111610713E-01
H20 -1.674057895317E-01 -1.032633557243E-01 -4.846111610713E-01
H21  2.073306367954E-01  3.358126373577E-01  3.578946939302E-01
H22 -2.073306367954E-01 -3.358126373577E-01 -3.578946939302E-01
H23  1.779816481514E-01  3.702165258304E-01  1.701906430372E-01
H24 -1.779816481514E-01 -3.702165258304E-01 -1.701906430372E-01
H25  1.413075491212E-01  4.074332665891E-01 -1.858379880738E-02
H26 -1.413075491212E-01 -4.074332665891E-01  1.858379880738E-02
H27 -1.048290714874E-01 -4.454541158264E-01  2.069104000597E-01
H28  1.048290714874E-01  4.454541158264E-01 -2.069104000597E-01
H29  8.351974071210E-03 -2.885005298195E-01  4.076168943397E-01
H30 -8.351974071210E-03  2.885005298195E-01 -4.076168943397E-01
C31 -4.552154132288E-01 -4.288712432329E-01  3.846925509740E-01
C32  4.552154132288E-01  4.288712432329E-01 -3.846925509740E-01
C33  4.842090329735E-01 -3.086095836866E-01  2.989028598601E-01
C34 -4.842090329735E-01  3.086095836866E-01 -2.989028598601E-01
C35  4.988150594533E-01 -4.078728077692E-01  1.951137975061E-01
C36 -4.988150594533E-01  4.078728077692E-01 -1.951137975061E-01
C37  4.414594461825E-01 -2.875998124015E-01  1.070601013625E-01
C38 -4.414594461825E-01  2.875998124015E-01 -1.070601013625E-01
C39  4.605489068351E-01 -3.846597317700E-01  6.150044718781E-03
C40 -4.605489068351E-01  3.846597317700E-01 -6.150044718781E-03
C41  4.040754262056E-01 -2.635980281317E-01 -8.325305998777E-02
C42 -4.040754262056E-01  2.635980281317E-01  8.325305998777E-02
C43 -4.222957901573E-01  3.615008479886E-01  1.828644400682E-01
C44  4.222957901573E-01 -3.615008479886E-01 -1.828644400682E-01
C45 -3.606773005135E-01  2.421465321679E-01  2.752355998939E-01
C46  3.606773005135E-01 -2.421465321679E-01 -2.752355998939E-01
C47 -3.766113726498E-01  3.436441548968E-01  3.728567865154E-01
C48  3.766113726498E-01 -3.436441548968E-01 -3.728567865154E-01
H49 -4.667532620130E-01 -3.499537213371E-01  4.631387233548E-01
H50  4.667532620130E-01  3.499537213371E-01 -4.631387233548E-01
H51  4.244000495316E-01 -1.351621556376E-01  3.081494381916E-01
H52 -4.244000495316E-01  1.351621556376E-01 -3.081494381916E-01
H53  3.812867090769E-01 -1.142303049250E-01  1.163141121370E-01
H54 -3.812867090769E-01  1.142303049250E-01 -1.163141121370E-01
H55  3.431896907473E-01 -9.053389164271E-02 -7.418414526600E-02
H56 -3.431896907473E-01  9.053389164271E-02  7.418414526600E-02
H57 -2.995370211035E-01  6.941268167993E-02  2.659911293957E-01
H58  2.995370211035E-01 -6.941268167993E-02 -2.659911293957E-01
H59 -3.291300456076E-01  2.510700072914E-01  4.425594959989E-01
H60  3.291300456076E-01 -2.510700072914E-01 -4.425594959989E-01


#===END

data_OPT_STEP_22

_symmetry_space_group_name_H-M 'P 1'
_cell_length_a      7.31546348
_cell_length_b      5.88956199
_cell_length_c     13.19777606
_cell_angle_alpha  101.218507
_cell_angle_beta  113.519163
_cell_angle_gamma   85.677014

loop_
_atom_site_label
_atom_site_fract_x
_atom_site_fract_y
_atom_site_fract_z
C1  1.187035582622E-01  3.405448608382E-02  3.958415408789E-01
C2 -1.187035582622E-01 -3.405448608382E-02 -3.958415408789E-01
C3  1.422355002127E-01  1.628607534969E-01  3.267468289463E-01
C4 -1.422355002127E-01 -1.628607534969E-01 -3.267468289463E-01
C5  8.058425697426E-02  7.601472829636E-02  2.093192055360E-01
C6 -8.058425697426E-02 -7.601472829636E-02 -2.093192055360E-01
C7  1.074555860675E-01  2.006856785634E-01  1.374520869500E-01
C8 -1.074555860675E-01 -2.006856785634E-01 -1.374520869500E-01
C9  4.631173102013E-02  1.124879785828E-01  2.218246265538E-02
C10 -4.631173102013E-02 -1.124879785828E-01 -2.218246265538E-02
C11  7.273473643561E-02  2.371700044686E-01 -5.128438916783E-02
C12 -7.273473643561E-02 -2.371700044686E-01  5.128438916783E-02
C13 -1.074084979403E-02 -1.493863675925E-01  1.650675848683E-01
C14  1.074084979403E-02  1.493863675925E-01 -1.650675848683E-01
C15 -3.504266188729E-02 -2.766002112486E-01  2.403442143169E-01
C16  3.504266188729E-02  2.766002112486E-01 -2.403442143169E-01
C17  2.870760029903E-02 -1.890568497923E-01  3.519711859354E-01
C18 -2.870760029903E-02  1.890568497923E-01 -3.519711859354E-01
H19  1.677510611673E-01  1.020155080171E-01  4.850832993466E-01
H20 -1.677510611673E-01 -1.020155080171E-01 -4.850832993466E-01
H21  2.071470134429E-01  3.349762913503E-01  3.586808809883E-01
H22 -2.071470134429E-01 -3.349762913503E-01 -3.586808809883E-01
H23  1.779737705436E-01  3.696701362203E-01  1.707663508532E-01
H24 -1.779737705436E-01 -3.696701362203E-01 -1.707663508532E-01
H25  1.427802475196E-01  4.063584950473E-01 -1.798930518854E-02
H26 -1.427802475196E-01 -4.063584950473E-01  1.798930518854E-02
H27 -1.052433335887E-01 -4.453243993807E-01  2.064285157425E-01
H28  1.052433335887E-01  4.453243993807E-01 -2.064285157425E-01
H29  9.174451724213E-03 -2.896394492265E-01  4.076606421903E-01
H30 -9.174451724213E-03  2.896394492265E-01 -4.076606421903E-01
C31 -4.554108102968E-01 -4.287316170026E-01  3.850340400928E-01
C32  4.554108102968E-01  4.287316170026E-01 -3.850340400928E-01
C33  4.837222679257E-01 -3.087481822970E-01  2.991235340661E-01
C34 -4.837222679257E-01  3.087481822970E-01 -2.991235340661E-01
C35  4.986149165662E-01 -4.078397933590E-01  1.952793110212E-01
C36 -4.986149165662E-01  4.078397933590E-01 -1.952793110212E-01
C37  4.408279479686E-01 -2.879464225936E-01  1.070727012243E-01
C38 -4.408279479686E-01  2.879464225936E-01 -1.070727012243E-01
C39  4.601152901625E-01 -3.849313411743E-01  6.086676801631E-03
C40 -4.601152901625E-01  3.849313411743E-01 -6.086676801631E-03
C41  4.034037865325E-01 -2.641651976317E-01 -8.342474391558E-02
C42 -4.034037865325E-01  2.641651976317E-01  8.342474391558E-02
C43 -4.217874216117E-01  3.620191606576E-01  1.831169063414E-01
C44  4.217874216117E-01 -3.620191606576E-01 -1.831169063414E-01
C45 -3.605677608974E-01  2.425393937305E-01  2.754322799935E-01
C46  3.605677608974E-01 -2.425393937305E-01 -2.754322799935E-01
C47 -3.764469754192E-01  3.440312948989E-01  3.731811252486E-01
C48  3.764469754192E-01 -3.440312948989E-01 -3.731811252486E-01
H49 -4.663817576429E-01 -3.494993194082E-01  4.636981261989E-01
H50  4.663817576429E-01  3.494993194082E-01 -4.636981261989E-01
H51  4.235557908154E-01 -1.355605827967E-01  3.083434032716E-01
H52 -4.235557908154E-01  1.355605827967E-01 -3.083434032716E-01
H53  3.801257962078E-01 -1.149332772963E-01  1.162483393416E-01
H54 -3.801257962078E-01  1.149332772963E-01 -1.162483393416E-01
H55  3.423446363819E-01 -9.127337685756E-02 -7.435043833711E-02
H56 -3.423446363819E-01  9.127337685756E-02  7.435043833711E-02
H57 -2.996360615939E-01  6.977816043170E-02  2.660813358767E-01
H58  2.996360615939E-01 -6.977816043170E-02 -2.660813358767E-01
H59 -3.284534564267E-01  2.517490184131E-01  4.430154737233E-01
H60  3.284534564267E-01 -2.517490184131E-01 -4.430154737233E-01


#===END

data_OPT_STEP_23

_symmetry_space_group_name_H-M 'P 1'
_cell_length_a      7.31793661
_cell_length_b      5.88971002
_cell_length_c     13.18787647
_cell_angle_alpha  101.222305
_cell_angle_beta  113.517572
_cell_angle_gamma   85.716882

loop_
_atom_site_label
_atom_site_fract_x
_atom_site_fract_y
_atom_site_fract_z
C1  1.179367110849E-01  3.299155133433E-02  3.959454319245E-01
C2 -1.179367110849E-01 -3.299155133433E-02 -3.959454319245E-01
C3  1.417485682194E-01  1.620404483539E-01  3.269795121003E-01
C4 -1.417485682194E-01 -1.620404483539E-01 -3.269795121003E-01
C5  8.040211246965E-02  7.539704364520E-02  2.094531054703E-01
C6 -8.040211246965E-02 -7.539704364520E-02 -2.094531054703E-01
C7  1.075055250575E-01  2.003369795183E-01  1.376939816580E-01
C8 -1.075055250575E-01 -2.003369795183E-01 -1.376939816580E-01
C9  4.657370888522E-02  1.123544957956E-01  2.231518143490E-02
C10 -4.657370888522E-02 -1.123544957956E-01 -2.231518143490E-02
C11  7.321728181517E-02  2.372998014331E-01 -5.104412415049E-02
C12 -7.321728181517E-02 -2.372998014331E-01  5.104412415049E-02
C13 -1.109493554044E-02 -1.499218892707E-01  1.649600436621E-01
C14  1.109493554044E-02  1.499218892707E-01 -1.649600436621E-01
C15 -3.592515414587E-02 -2.772522450006E-01  2.400867545246E-01
C16  3.592515414587E-02  2.772522450006E-01 -2.400867545246E-01
C17  2.750700054123E-02 -1.898994568746E-01  3.518091008537E-01
C18 -2.750700054123E-02  1.898994568746E-01 -3.518091008537E-01
H19  1.672027801012E-01  1.005907729933E-01  4.853089852940E-01
H20 -1.672027801012E-01 -1.005907729933E-01 -4.853089852940E-01
H21  2.069771339197E-01  3.339949736431E-01  3.592331031891E-01
H22 -2.069771339197E-01 -3.339949736431E-01 -3.592331031891E-01
H23  1.779576347935E-01  3.693927995397E-01  1.711923554968E-01
H24 -1.779576347935E-01 -3.693927995397E-01 -1.711923554968E-01
H25  1.434564114816E-01  4.064188532802E-01 -1.755472915210E-02
H26 -1.434564114816E-01 -4.064188532802E-01  1.755472915210E-02
H27 -1.059681818342E-01 -4.460438771602E-01  2.059769924151E-01
H28  1.059681818342E-01  4.460438771602E-01 -2.059769924151E-01
H29  7.607846120926E-03 -2.905079260652E-01  4.074145041356E-01
H30 -7.607846120926E-03  2.905079260652E-01 -4.074145041356E-01
C31 -4.550164464129E-01 -4.283233127205E-01  3.854388632701E-01
C32  4.550164464129E-01  4.283233127205E-01 -3.854388632701E-01
C33  4.847930497002E-01 -3.080338943367E-01  2.995874289469E-01
C34 -4.847930497002E-01  3.080338943367E-01 -2.995874289469E-01
C35  4.992093695436E-01 -4.073866472314E-01  1.955661998377E-01
C36 -4.992093695436E-01  4.073866472314E-01 -1.955661998377E-01
C37  4.416421727869E-01 -2.875016079466E-01  1.073225298695E-01
C38 -4.416421727869E-01  2.875016079466E-01 -1.073225298695E-01
C39  4.604750998927E-01 -3.848010139285E-01  6.152620715770E-03
C40 -4.604750998927E-01  3.848010139285E-01 -6.152620715770E-03
C41  4.040967765276E-01 -2.639730183640E-01 -8.336573054833E-02
C42 -4.040967765276E-01  2.639730183640E-01  8.336573054833E-02
C43 -4.221333947695E-01  3.620608796176E-01  1.832108088636E-01
C44  4.221333947695E-01 -3.620608796176E-01 -1.832108088636E-01
C45 -3.614568742026E-01  2.423796500382E-01  2.754793993206E-01
C46  3.614568742026E-01 -2.423796500382E-01 -2.754793993206E-01
C47 -3.769649529923E-01  3.440654940622E-01  3.733826059252E-01
C48  3.769649529923E-01 -3.440654940622E-01 -3.733826059252E-01
H49 -4.656420539385E-01 -3.488824299510E-01  4.642362819617E-01
H50  4.656420539385E-01  3.488824299510E-01 -4.642362819617E-01
H51  4.255063343058E-01 -1.344472989773E-01  3.089890493993E-01
H52 -4.255063343058E-01  1.344472989773E-01 -3.089890493993E-01
H53  3.814636093543E-01 -1.142819655532E-01  1.165905383749E-01
H54 -3.814636093543E-01  1.142819655532E-01 -1.165905383749E-01
H55  3.434445468149E-01 -9.093689627447E-02 -7.421798586952E-02
H56 -3.434445468149E-01  9.093689627447E-02  7.421798586952E-02
H57 -3.012551152466E-01  6.930328253232E-02  2.659788011815E-01
H58  3.012551152466E-01 -6.930328253232E-02 -2.659788011815E-01
H59 -3.294422964418E-01  2.515762059114E-01  4.431617604941E-01
H60  3.294422964418E-01 -2.515762059114E-01 -4.431617604941E-01


#===END

data_OPT_STEP_24

_symmetry_space_group_name_H-M 'P 1'
_cell_length_a      7.30766298
_cell_length_b      5.89614461
_cell_length_c     13.18418222
_cell_angle_alpha  101.192127
_cell_angle_beta  113.524443
_cell_angle_gamma   85.728426

loop_
_atom_site_label
_atom_site_fract_x
_atom_site_fract_y
_atom_site_fract_z
C1  1.183614068275E-01  3.128244935215E-02  3.959479831138E-01
C2 -1.183614068275E-01 -3.128244935215E-02 -3.959479831138E-01
C3  1.419961854545E-01  1.606527666990E-01  3.270429094142E-01
C4 -1.419961854545E-01 -1.606527666990E-01 -3.270429094142E-01
C5  8.103216135917E-02  7.422098568900E-02  2.095167622424E-01
C6 -8.103216135917E-02 -7.422098568900E-02 -2.095167622424E-01
C7  1.083343717574E-01  1.992700177019E-01  1.378555690210E-01
C8 -1.083343717574E-01 -1.992700177019E-01 -1.378555690210E-01
C9  4.660116117933E-02  1.122297704910E-01  2.237437619554E-02
C10 -4.660116117933E-02 -1.122297704910E-01 -2.237437619554E-02
C11  7.282105134987E-02  2.376769989731E-01 -5.094918218892E-02
C12 -7.282105134987E-02 -2.376769989731E-01  5.094918218892E-02
C13 -1.048348634488E-02 -1.508644305514E-01  1.649139949750E-01
C14  1.048348634488E-02  1.508644305514E-01 -1.649139949750E-01
C15 -3.558323027520E-02 -2.782690003053E-01  2.399285334533E-01
C16  3.558323027520E-02  2.782690003053E-01 -2.399285334533E-01
C17  2.785119109814E-02 -1.913315237418E-01  3.516903406944E-01
C18 -2.785119109814E-02  1.913315237418E-01 -3.516903406944E-01
H19  1.671490519038E-01  9.890965542669E-02  4.853013651549E-01
H20 -1.671490519038E-01 -9.890965542669E-02 -4.853013651549E-01
H21  2.071733685462E-01  3.324559409097E-01  3.593893993471E-01
H22 -2.071733685462E-01 -3.324559409097E-01 -3.593893993471E-01
H23  1.789706180158E-01  3.680899963502E-01  1.714536203459E-01
H24 -1.789706180158E-01 -3.680899963502E-01 -1.714536203459E-01
H25  1.427716044397E-01  4.068004282265E-01 -1.739768603843E-02
H26 -1.427716044397E-01 -4.068004282265E-01  1.739768603843E-02
H27 -1.057370510457E-01 -4.468540370645E-01  2.057147249537E-01
H28  1.057370510457E-01  4.468540370645E-01 -2.057147249537E-01
H29  7.429862512208E-03 -2.917674029148E-01  4.072079387102E-01
H30 -7.429862512208E-03  2.917674029148E-01 -4.072079387102E-01
C31 -4.544355240761E-01 -4.278555230185E-01  3.856674018178E-01
C32  4.544355240761E-01  4.278555230185E-01 -3.856674018178E-01
C33  4.849424135790E-01 -3.079973089196E-01  2.996561208036E-01
C34 -4.849424135790E-01  3.079973089196E-01 -2.996561208036E-01
C35  4.995043991767E-01 -4.072156879948E-01  1.956686316137E-01
C36 -4.995043991767E-01  4.072156879948E-01 -1.956686316137E-01
C37  4.423728668274E-01 -2.872505276546E-01  1.074668566321E-01
C38 -4.423728668274E-01  2.872505276546E-01 -1.074668566321E-01
C39  4.608311369975E-01 -3.847382983699E-01  6.197037780206E-03
C40 -4.608311369975E-01  3.847382983699E-01 -6.197037780206E-03
C41  4.043043899181E-01 -2.641514259662E-01 -8.340188867501E-02
C42 -4.043043899181E-01  2.641514259662E-01  8.340188867501E-02
C43 -4.221863554245E-01  3.622671324858E-01  1.832926180804E-01
C44  4.221863554245E-01 -3.622671324858E-01 -1.832926180804E-01
C45 -3.607346165258E-01  2.431963872180E-01  2.757973125673E-01
C46  3.607346165258E-01 -2.431963872180E-01 -2.757973125673E-01
C47 -3.759415768463E-01  3.449886022482E-01  3.737741803805E-01
C48  3.759415768463E-01 -3.449886022482E-01 -3.737741803805E-01
H49 -4.653877731259E-01 -3.485157366805E-01  4.643886648468E-01
H50  4.653877731259E-01  3.485157366805E-01 -4.643886648468E-01
H51  4.253014187916E-01 -1.347598774488E-01  3.089355495370E-01
H52 -4.253014187916E-01  1.347598774488E-01 -3.089355495370E-01
H53  3.826584376998E-01 -1.139510490579E-01  1.167966652480E-01
H54 -3.826584376998E-01  1.139510490579E-01 -1.167966652480E-01
H55  3.434181643044E-01 -9.139966392593E-02 -7.434609445975E-02
H56 -3.434181643044E-01  9.139966392593E-02  7.434609445975E-02
H57 -3.002514068575E-01  7.041983268487E-02  2.664096772205E-01
H58  3.002514068575E-01 -7.041983268487E-02 -2.664096772205E-01
H59 -3.284988937739E-01  2.525771539297E-01  4.435738789137E-01
H60  3.284988937739E-01 -2.525771539297E-01 -4.435738789137E-01


#===END

data_OPT_STEP_25

_symmetry_space_group_name_H-M 'P 1'
_cell_length_a      7.30802131
_cell_length_b      5.89680987
_cell_length_c     13.18403067
_cell_angle_alpha  101.201619
_cell_angle_beta  113.544353
_cell_angle_gamma   85.707726

loop_
_atom_site_label
_atom_site_fract_x
_atom_site_fract_y
_atom_site_fract_z
C1  1.179864938104E-01  3.147341522716E-02  3.959365492635E-01
C2 -1.179864938104E-01 -3.147341522716E-02 -3.959365492635E-01
C3  1.417736533178E-01  1.607238811269E-01  3.270619524358E-01
C4 -1.417736533178E-01 -1.607238811269E-01 -3.270619524358E-01
C5  8.077653752763E-02  7.435753649719E-02  2.095146248210E-01
C6 -8.077653752763E-02 -7.435753649719E-02 -2.095146248210E-01
C7  1.081062361455E-01  1.993705075341E-01  1.378712948956E-01
C8 -1.081062361455E-01 -1.993705075341E-01 -1.378712948956E-01
C9  4.645315340253E-02  1.122999392754E-01  2.237953398743E-02
C10 -4.645315340253E-02 -1.122999392754E-01 -2.237953398743E-02
C11  7.276481649532E-02  2.376683919225E-01 -5.092289845731E-02
C12 -7.276481649532E-02 -2.376683919225E-01  5.092289845731E-02
C13 -1.070942328282E-02 -1.507064715162E-01  1.648842913844E-01
C14  1.070942328282E-02  1.507064715162E-01 -1.648842913844E-01
C15 -3.582719095663E-02 -2.780798171370E-01  2.398754605879E-01
C16  3.582719095663E-02  2.780798171370E-01 -2.398754605879E-01
C17  2.759736879400E-02 -1.911654447348E-01  3.516567042049E-01
C18 -2.759736879400E-02  1.911654447348E-01 -3.516567042049E-01
H19  1.665231393812E-01  9.923551704874E-02  4.852816618893E-01
H20 -1.665231393812E-01 -9.923551704874E-02 -4.852816618893E-01
H21  2.070598317889E-01  3.324251453164E-01  3.594307940991E-01
H22 -2.070598317889E-01 -3.324251453164E-01 -3.594307940991E-01
H23  1.787444825536E-01  3.681625290051E-01  1.714879566976E-01
H24 -1.787444825536E-01 -3.681625290051E-01 -1.714879566976E-01
H25  1.425809831297E-01  4.068345575373E-01 -1.736552670812E-02
H26 -1.425809831297E-01 -4.068345575373E-01  1.736552670812E-02
H27 -1.060004948268E-01 -4.466395700226E-01  2.056414760151E-01
H28  1.060004948268E-01  4.466395700226E-01 -2.056414760151E-01
H29  7.158556933267E-03 -2.915993556895E-01  4.071592175131E-01
H30 -7.158556933267E-03  2.915993556895E-01 -4.071592175131E-01
C31 -4.543675984584E-01 -4.278800575919E-01  3.856899779078E-01
C32  4.543675984584E-01  4.278800575919E-01 -3.856899779078E-01
C33  4.849478033917E-01 -3.080498289119E-01  2.996653379424E-01
C34 -4.849478033917E-01  3.080498289119E-01 -2.996653379424E-01
C35  4.993198668758E-01 -4.073667255167E-01  1.956313453455E-01
C36 -4.993198668758E-01  4.073667255167E-01 -1.956313453455E-01
C37  4.422684456760E-01 -2.873399199188E-01  1.074491530810E-01
C38 -4.422684456760E-01  2.873399199188E-01 -1.074491530810E-01
C39  4.608771275981E-01 -3.847109268477E-01  6.215484879845E-03
C40 -4.608771275981E-01  3.847109268477E-01 -6.215484879845E-03
C41  4.045605605770E-01 -2.639813645176E-01 -8.333729646072E-02
C42 -4.045605605770E-01  2.639813645176E-01  8.333729646072E-02
C43 -4.223676693995E-01  3.621203786691E-01  1.832500382485E-01
C44  4.223676693995E-01 -3.621203786691E-01 -1.832500382485E-01
C45 -3.607989772577E-01  2.431111523861E-01  2.757879118211E-01
C46  3.607989772577E-01 -2.431111523861E-01 -2.757879118211E-01
C47 -3.760043896570E-01  3.449004293532E-01  3.737652653028E-01
C48  3.760043896570E-01 -3.449004293532E-01 -3.737652653028E-01
H49 -4.652641748543E-01 -3.484919515756E-01  4.644244056825E-01
H50  4.652641748543E-01  3.484919515756E-01 -4.644244056825E-01
H51  4.254212298867E-01 -1.347527660994E-01  3.089725612003E-01
H52 -4.254212298867E-01  1.347527660994E-01 -3.089725612003E-01
H53  3.826277989079E-01 -1.139993809118E-01  1.168059831437E-01
H54 -3.826277989079E-01  1.139993809118E-01 -1.168059831437E-01
H55  3.439146048726E-01 -9.109981624058E-02 -7.422025981619E-02
H56 -3.439146048726E-01  9.109981624058E-02  7.422025981619E-02
H57 -3.003611586694E-01  7.030510608513E-02  2.663891688055E-01
H58  3.003611586694E-01 -7.030510608513E-02 -2.663891688055E-01
H59 -3.285112333123E-01  2.525159182619E-01  4.435786378533E-01
H60  3.285112333123E-01 -2.525159182619E-01 -4.435786378533E-01


#===END

data_OPT_STEP_26

_symmetry_space_group_name_H-M 'P 1'
_cell_length_a      7.30741168
_cell_length_b      5.89681533
_cell_length_c     13.18464570
_cell_angle_alpha  101.196672
_cell_angle_beta  113.556779
_cell_angle_gamma   85.690109

loop_
_atom_site_label
_atom_site_fract_x
_atom_site_fract_y
_atom_site_fract_z
C1  1.180810380805E-01  3.105793784607E-02  3.959297640167E-01
C2 -1.180810380805E-01 -3.105793784607E-02 -3.959297640167E-01
C3  1.419855938786E-01  1.602856256366E-01  3.270892934922E-01
C4 -1.419855938786E-01 -1.602856256366E-01 -3.270892934922E-01
C5  8.065253274998E-02  7.427014237901E-02  2.095072955963E-01
C6 -8.065253274998E-02 -7.427014237901E-02 -2.095072955963E-01
C7  1.078991590738E-01  1.993822026693E-01  1.378808556900E-01
C8 -1.078991590738E-01 -1.993822026693E-01 -1.378808556900E-01
C9  4.639067715505E-02  1.123177517713E-01  2.239707113681E-02
C10 -4.639067715505E-02 -1.123177517713E-01 -2.239707113681E-02
C11  7.270169441015E-02  2.377482904270E-01 -5.088062691269E-02
C12 -7.270169441015E-02 -2.377482904270E-01  5.088062691269E-02
C13 -1.096938956026E-02 -1.506972976276E-01  1.648275310139E-01
C14  1.096938956026E-02  1.506972976276E-01 -1.648275310139E-01
C15 -3.604257109944E-02 -2.781390811859E-01  2.397931510202E-01
C16  3.604257109944E-02  2.781390811859E-01 -2.397931510202E-01
C17  2.743324289516E-02 -1.913698051599E-01  3.515900642888E-01
C18 -2.743324289516E-02  1.913698051599E-01 -3.515900642888E-01
H19  1.668882049163E-01  9.853117759172E-02  4.853047845346E-01
H20 -1.668882049163E-01 -9.853117759172E-02 -4.853047845346E-01
H21  2.071424214414E-01  3.320413501476E-01  3.594302815847E-01
H22 -2.071424214414E-01 -3.320413501476E-01 -3.594302815847E-01
H23  1.785352241858E-01  3.681511735682E-01  1.715096847833E-01
H24 -1.785352241858E-01 -3.681511735682E-01 -1.715096847833E-01
H25  1.425073234707E-01  4.068913070717E-01 -1.730458672678E-02
H26 -1.425073234707E-01 -4.068913070717E-01  1.730458672678E-02
H27 -1.062454237266E-01 -4.466824073960E-01  2.055543733849E-01
H28  1.062454237266E-01  4.466824073960E-01 -2.055543733849E-01
H29  7.110565667490E-03 -2.920007392351E-01  4.070602620186E-01
H30 -7.110565667490E-03  2.920007392351E-01 -4.070602620186E-01
C31 -4.544506748629E-01 -4.278612102546E-01  3.856422318735E-01
C32  4.544506748629E-01  4.278612102546E-01 -3.856422318735E-01
C33  4.848516058934E-01 -3.080485870231E-01  2.996062902631E-01
C34 -4.848516058934E-01  3.080485870231E-01 -2.996062902631E-01
C35  4.989952858248E-01 -4.075360766253E-01  1.955364918911E-01
C36 -4.989952858248E-01  4.075360766253E-01 -1.955364918911E-01
C37  4.419330521226E-01 -2.875130966230E-01  1.073401506795E-01
C38 -4.419330521226E-01  2.875130966230E-01 -1.073401506795E-01
C39  4.608354217045E-01 -3.847081077336E-01  6.197898787139E-03
C40 -4.608354217045E-01  3.847081077336E-01 -6.197898787139E-03
C41  4.045502621274E-01 -2.639564537509E-01 -8.336489291884E-02
C42 -4.045502621274E-01  2.639564537509E-01  8.336489291884E-02
C43 -4.225249211428E-01  3.620151378764E-01  1.832225621908E-01
C44  4.225249211428E-01 -3.620151378764E-01 -1.832225621908E-01
C45 -3.609992125754E-01  2.430010771966E-01  2.757793008766E-01
C46  3.609992125754E-01 -2.430010771966E-01 -2.757793008766E-01
C47 -3.763103769727E-01  3.447938970687E-01  3.737138025689E-01
C48  3.763103769727E-01 -3.447938970687E-01 -3.737138025689E-01
H49 -4.653617715762E-01 -3.484573478734E-01  4.643544554053E-01
H50  4.653617715762E-01  3.484573478734E-01 -4.643544554053E-01
H51  4.253796309610E-01 -1.347079542589E-01  3.089031880832E-01
H52 -4.253796309610E-01  1.347079542589E-01 -3.089031880832E-01
H53  3.821777481631E-01 -1.142133550196E-01  1.166594127210E-01
H54 -3.821777481631E-01  1.142133550196E-01 -1.166594127210E-01
H55  3.437624381451E-01 -9.112286148055E-02 -7.429710291806E-02
H56 -3.437624381451E-01  9.112286148055E-02  7.429710291806E-02
H57 -3.003622490041E-01  7.027331552148E-02  2.664523900349E-01
H58  3.003622490041E-01 -7.027331552148E-02 -2.664523900349E-01
H59 -3.284389023225E-01  2.526456479690E-01  4.436384822685E-01
H60  3.284389023225E-01 -2.526456479690E-01 -4.436384822685E-01


#===END

data_OPT_STEP_27

_symmetry_space_group_name_H-M 'P 1'
_cell_length_a      7.30817188
_cell_length_b      5.89759161
_cell_length_c     13.18574223
_cell_angle_alpha  101.207838
_cell_angle_beta  113.592752
_cell_angle_gamma   85.674477

loop_
_atom_site_label
_atom_site_fract_x
_atom_site_fract_y
_atom_site_fract_z
C1  1.177993969706E-01  3.112517654173E-02  3.959120288432E-01
C2 -1.177993969706E-01 -3.112517654173E-02 -3.959120288432E-01
C3  1.417562274163E-01  1.603322599950E-01  3.271115824749E-01
C4 -1.417562274163E-01 -1.603322599950E-01 -3.271115824749E-01
C5  8.050101928370E-02  7.430380113724E-02  2.095106684871E-01
C6 -8.050101928370E-02 -7.430380113724E-02 -2.095106684871E-01
C7  1.078381537544E-01  1.993736846182E-01  1.379307606560E-01
C8 -1.078381537544E-01 -1.993736846182E-01 -1.379307606560E-01
C9  4.637822650651E-02  1.123143838995E-01  2.242828924242E-02
C10 -4.637822650651E-02 -1.123143838995E-01 -2.242828924242E-02
C11  7.273037817652E-02  2.377337130573E-01 -5.081154343002E-02
C12 -7.273037817652E-02 -2.377337130573E-01  5.081154343002E-02
C13 -1.107141701194E-02 -1.506736217758E-01  1.647777199961E-01
C14  1.107141701194E-02  1.506736217758E-01 -1.647777199961E-01
C15 -3.616906438326E-02 -2.781181819136E-01  2.397009492825E-01
C16  3.616906438326E-02  2.781181819136E-01 -2.397009492825E-01
C17  2.718679805074E-02 -1.913060870961E-01  3.515139430118E-01
C18 -2.718679805074E-02  1.913060870961E-01 -3.515139430118E-01
H19  1.665942366128E-01  9.857709881914E-02  4.853042565562E-01
H20 -1.665942366128E-01 -9.857709881914E-02 -4.853042565562E-01
H21  2.069044441148E-01  3.320764503830E-01  3.594894219653E-01
H22 -2.069044441148E-01 -3.320764503830E-01 -3.594894219653E-01
H23  1.785049846893E-01  3.681087326478E-01  1.716073609443E-01
H24 -1.785049846893E-01 -3.681087326478E-01 -1.716073609443E-01
H25  1.425336776415E-01  4.068600560135E-01 -1.719095219639E-02
H26 -1.425336776415E-01 -4.068600560135E-01  1.719095219639E-02
H27 -1.063914696459E-01 -4.466372234803E-01  2.054246688846E-01
H28  1.063914696459E-01  4.466372234803E-01 -2.054246688846E-01
H29  6.839057864726E-03 -2.919393819782E-01  4.069542268134E-01
H30 -6.839057864726E-03  2.919393819782E-01 -4.069542268134E-01
C31 -4.546345218889E-01 -4.279878386274E-01  3.855884847195E-01
C32  4.546345218889E-01  4.279878386274E-01 -3.855884847195E-01
C33  4.846420896010E-01 -3.081882965812E-01  2.995440200222E-01
C34 -4.846420896010E-01  3.081882965812E-01 -2.995440200222E-01
C35  4.988258152490E-01 -4.076454369353E-01  1.954897332289E-01
C36 -4.988258152490E-01  4.076454369353E-01 -1.954897332289E-01
C37  4.418140598569E-01 -2.875926437002E-01  1.073022681065E-01
C38 -4.418140598569E-01  2.875926437002E-01 -1.073022681065E-01
C39  4.608070373440E-01 -3.847245827891E-01  6.190360722456E-03
C40 -4.608070373440E-01  3.847245827891E-01 -6.190360722456E-03
C41  4.046244681573E-01 -2.639168029655E-01 -8.335495422226E-02
C42 -4.046244681573E-01  2.639168029655E-01  8.335495422226E-02
C43 -4.226962498618E-01  3.619128513317E-01  1.831826702232E-01
C44  4.226962498618E-01 -3.619128513317E-01 -1.831826702232E-01
C45 -3.612836172966E-01  2.428358387307E-01  2.757187691220E-01
C46  3.612836172966E-01 -2.428358387307E-01 -2.757187691220E-01
C47 -3.765819578539E-01  3.446331235228E-01  3.736484793933E-01
C48  3.765819578539E-01 -3.446331235228E-01 -3.736484793933E-01
H49 -4.653806801681E-01 -3.485079885337E-01  4.643307963274E-01
H50  4.653806801681E-01  3.485079885337E-01 -4.643307963274E-01
H51  4.251899674714E-01 -1.348455739355E-01  3.088397075178E-01
H52 -4.251899674714E-01  1.348455739355E-01 -3.088397075178E-01
H53  3.820224915491E-01 -1.143189980457E-01  1.166102055567E-01
H54 -3.820224915491E-01  1.143189980457E-01 -1.166102055567E-01
H55  3.438703033994E-01 -9.107141765104E-02 -7.428414663010E-02
H56 -3.438703033994E-01  9.107141765104E-02  7.428414663010E-02
H57 -3.006393704597E-01  7.011867522623E-02  2.663991366713E-01
H58  3.006393704597E-01 -7.011867522623E-02 -2.663991366713E-01
H59 -3.287657749489E-01  2.524632805410E-01  4.435634909078E-01
H60  3.287657749489E-01 -2.524632805410E-01 -4.435634909078E-01


#===END

data_OPT_STEP_28

_symmetry_space_group_name_H-M 'P 1'
_cell_length_a      7.30991172
_cell_length_b      5.89809748
_cell_length_c     13.18504895
_cell_angle_alpha  101.208540
_cell_angle_beta  113.617955
_cell_angle_gamma   85.642236

loop_
_atom_site_label
_atom_site_fract_x
_atom_site_fract_y
_atom_site_fract_z
C1  1.175732856428E-01  3.092431388406E-02  3.959230745310E-01
C2 -1.175732856428E-01 -3.092431388406E-02 -3.959230745310E-01
C3  1.416884588662E-01  1.600646208966E-01  3.271582098223E-01
C4 -1.416884588662E-01 -1.600646208966E-01 -3.271582098223E-01
C5  8.030896632155E-02  7.424581896910E-02  2.095221462008E-01
C6 -8.030896632155E-02 -7.424581896910E-02 -2.095221462008E-01
C7  1.076784273581E-01  1.993325221609E-01  1.379730529453E-01
C8 -1.076784273581E-01 -1.993325221609E-01 -1.379730529453E-01
C9  4.634495470670E-02  1.122989517839E-01  2.245420076411E-02
C10 -4.634495470670E-02 -1.122989517839E-01 -2.245420076411E-02
C11  7.284625971777E-02  2.376598683871E-01 -5.074521000924E-02
C12 -7.284625971777E-02 -2.376598683871E-01  5.074521000924E-02
C13 -1.119469458327E-02 -1.507111041588E-01  1.647372706231E-01
C14  1.119469458327E-02  1.507111041588E-01 -1.647372706231E-01
C15 -3.618773412231E-02 -2.782590250691E-01  2.396506997444E-01
C16  3.618773412231E-02  2.782590250691E-01 -2.396506997444E-01
C17  2.707953224856E-02 -1.915152606413E-01  3.514851500271E-01
C18 -2.707953224856E-02  1.915152606413E-01 -3.514851500271E-01
H19  1.663115552097E-01  9.831959539731E-02  4.853272822896E-01
H20 -1.663115552097E-01 -9.831959539731E-02 -4.853272822896E-01
H21  2.069311957158E-01  3.316971864324E-01  3.595983220391E-01
H22 -2.069311957158E-01 -3.316971864324E-01 -3.595983220391E-01
H23  1.783982019482E-01  3.679687233801E-01  1.716947456885E-01
H24 -1.783982019482E-01 -3.679687233801E-01 -1.716947456885E-01
H25  1.425807532649E-01  4.067691657297E-01 -1.709048310197E-02
H26 -1.425807532649E-01 -4.067691657297E-01  1.709048310197E-02
H27 -1.064688540939E-01 -4.466957806686E-01  2.053324513283E-01
H28  1.064688540939E-01  4.466957806686E-01 -2.053324513283E-01
H29  6.731880060197E-03 -2.922182787587E-01  4.068929149061E-01
H30 -6.731880060197E-03  2.922182787587E-01 -4.068929149061E-01
C31 -4.546702905927E-01 -4.279038151294E-01  3.856226510568E-01
C32  4.546702905927E-01  4.279038151294E-01 -3.856226510568E-01
C33  4.847449790786E-01 -3.080380281520E-01  2.995748632009E-01
C34 -4.847449790786E-01  3.080380281520E-01 -2.995748632009E-01
C35  4.988138331711E-01 -4.076019642565E-01  1.954979614286E-01
C36 -4.988138331711E-01  4.076019642565E-01 -1.954979614286E-01
C37  4.416323388280E-01 -2.876522048515E-01  1.072449403121E-01
C38 -4.416323388280E-01  2.876522048515E-01 -1.072449403121E-01
C39  4.606928853819E-01 -3.847604240077E-01  6.150684363659E-03
C40 -4.606928853819E-01  3.847604240077E-01 -6.150684363659E-03
C41  4.045853874574E-01 -2.639326318145E-01 -8.340849408659E-02
C42 -4.045853874574E-01  2.639326318145E-01  8.340849408659E-02
C43 -4.226782350350E-01  3.619449989042E-01  1.832285887600E-01
C44  4.226782350350E-01 -3.619449989042E-01 -1.832285887600E-01
C45 -3.612213716776E-01  2.429020886217E-01  2.758091069246E-01
C46  3.612213716776E-01 -2.429020886217E-01 -2.758091069246E-01
C47 -3.764687486451E-01  3.447552323593E-01  3.737460692601E-01
C48  3.764687486451E-01 -3.447552323593E-01 -3.737460692601E-01
H49 -4.652973499386E-01 -3.483523382836E-01  4.643853931666E-01
H50  4.652973499386E-01  3.483523382836E-01 -4.643853931666E-01
H51  4.256395746770E-01 -1.344976158263E-01  3.089142864708E-01
H52 -4.256395746770E-01  1.344976158263E-01 -3.089142864708E-01
H53  3.817000961596E-01 -1.144339446867E-01  1.165028706552E-01
H54 -3.817000961596E-01  1.144339446867E-01 -1.165028706552E-01
H55  3.440012660098E-01 -9.097718280468E-02 -7.432265299638E-02
H56 -3.440012660098E-01  9.097718280468E-02  7.432265299638E-02
H57 -3.005154167502E-01  7.019615670941E-02  2.665274854031E-01
H58  3.005154167502E-01 -7.019615670941E-02 -2.665274854031E-01
H59 -3.287362347015E-01  2.525611226897E-01  4.436694819300E-01
H60  3.287362347015E-01 -2.525611226897E-01 -4.436694819300E-01


#===END

data_OPT_STEP_29

_symmetry_space_group_name_H-M 'P 1'
_cell_length_a      7.31226336
_cell_length_b      5.89754586
_cell_length_c     13.18458867
_cell_angle_alpha  101.215149
_cell_angle_beta  113.647010
_cell_angle_gamma   85.628946

loop_
_atom_site_label
_atom_site_fract_x
_atom_site_fract_y
_atom_site_fract_z
C1  1.174036666592E-01  3.066338984333E-02  3.959305634073E-01
C2 -1.174036666592E-01 -3.066338984333E-02 -3.959305634073E-01
C3  1.415399343493E-01  1.598818406084E-01  3.272076961659E-01
C4 -1.415399343493E-01 -1.598818406084E-01 -3.272076961659E-01
C5  8.019686377729E-02  7.413857768083E-02  2.095429681821E-01
C6 -8.019686377729E-02 -7.413857768083E-02 -2.095429681821E-01
C7  1.075978905526E-01  1.993032006104E-01  1.380400912720E-01
C8 -1.075978905526E-01 -1.993032006104E-01 -1.380400912720E-01
C9  4.631399658271E-02  1.123249159285E-01  2.249101149778E-02
C10 -4.631399658271E-02 -1.123249159285E-01 -2.249101149778E-02
C11  7.295350937677E-02  2.376927804006E-01 -5.065320761614E-02
C12 -7.295350937677E-02 -2.376927804006E-01  5.065320761614E-02
C13 -1.138553694983E-02 -1.507793520264E-01  1.646722700909E-01
C14  1.138553694983E-02  1.507793520264E-01 -1.646722700909E-01
C15 -3.650348201523E-02 -2.783390581112E-01  2.395326368411E-01
C16  3.650348201523E-02  2.783390581112E-01 -2.395326368411E-01
C17  2.681173762062E-02 -1.917247750230E-01  3.514053321132E-01
C18 -2.681173762062E-02  1.917247750230E-01 -3.514053321132E-01
H19  1.661318973056E-01  9.800818111404E-02  4.853599627717E-01
H20 -1.661318973056E-01 -9.800818111404E-02 -4.853599627717E-01
H21  2.068974315070E-01  3.314473872775E-01  3.597411378043E-01
H22 -2.068974315070E-01 -3.314473872775E-01 -3.597411378043E-01
H23  1.782925835944E-01  3.679559900054E-01  1.718225494491E-01
H24 -1.782925835944E-01 -3.679559900054E-01 -1.718225494491E-01
H25  1.427769571989E-01  4.067564497494E-01 -1.692953987204E-02
H26 -1.427769571989E-01 -4.067564497494E-01  1.692953987204E-02
H27 -1.067619839684E-01 -4.467862363830E-01  2.051557133819E-01
H28  1.067619839684E-01  4.467862363830E-01 -2.051557133819E-01
H29  6.396129828649E-03 -2.924747708030E-01  4.067693152876E-01
H30 -6.396129828649E-03  2.924747708030E-01 -4.067693152876E-01
C31 -4.547409692277E-01 -4.278864438506E-01  3.856409655539E-01
C32  4.547409692277E-01  4.278864438506E-01 -3.856409655539E-01
C33  4.845756309233E-01 -3.080768862452E-01  2.995501222250E-01
C34 -4.845756309233E-01  3.080768862452E-01 -2.995501222250E-01
C35  4.986621181426E-01 -4.076511338537E-01  1.954754521478E-01
C36 -4.986621181426E-01  4.076511338537E-01 -1.954754521478E-01
C37  4.415357547093E-01 -2.876680083138E-01  1.072147624146E-01
C38 -4.415357547093E-01  2.876680083138E-01 -1.072147624146E-01
C39  4.606846790153E-01 -3.847448294425E-01  6.140609513041E-03
C40 -4.606846790153E-01  3.847448294425E-01 -6.140609513041E-03
C41  4.046337566376E-01 -2.638930919940E-01 -8.342604067999E-02
C42 -4.046337566376E-01  2.638930919940E-01  8.342604067999E-02
C43 -4.227128993942E-01  3.619315057958E-01  1.832509444385E-01
C44  4.227128993942E-01 -3.619315057958E-01 -1.832509444385E-01
C45 -3.613235531913E-01  2.428487967095E-01  2.758397529991E-01
C46  3.613235531913E-01 -2.428487967095E-01 -2.758397529991E-01
C47 -3.766450332651E-01  3.446797934424E-01  3.737579479457E-01
C48  3.766450332651E-01 -3.446797934424E-01 -3.737579479457E-01
H49 -4.651866708691E-01 -3.482238438645E-01  4.644429701599E-01
H50  4.651866708691E-01  3.482238438645E-01 -4.644429701599E-01
H51  4.253493703449E-01 -1.345833844295E-01  3.088457292704E-01
H52 -4.253493703449E-01  1.345833844295E-01 -3.088457292704E-01
H53  3.815780346693E-01 -1.144405436343E-01  1.164559432413E-01
H54 -3.815780346693E-01  1.144405436343E-01 -1.164559432413E-01
H55  3.440606016297E-01 -9.091129754501E-02 -7.435117070216E-02
H56 -3.440606016297E-01  9.091129754501E-02  7.435117070216E-02
H57 -3.006573916591E-01  7.009831084439E-02  2.665629069817E-01
H58  3.006573916591E-01 -7.009831084439E-02 -2.665629069817E-01
H59 -3.290129304695E-01  2.524346094310E-01  4.436769321584E-01
H60  3.290129304695E-01 -2.524346094310E-01 -4.436769321584E-01


#===END

data_OPT_STEP_30

_symmetry_space_group_name_H-M 'P 1'
_cell_length_a      7.31292223
_cell_length_b      5.89837364
_cell_length_c     13.18578738
_cell_angle_alpha  101.201346
_cell_angle_beta  113.724834
_cell_angle_gamma   85.612938

loop_
_atom_site_label
_atom_site_fract_x
_atom_site_fract_y
_atom_site_fract_z
C1  1.171041257517E-01  3.018936929407E-02  3.958901076154E-01
C2 -1.171041257517E-01 -3.018936929407E-02 -3.958901076154E-01
C3  1.412903197764E-01  1.595020478542E-01  3.272419778033E-01
C4 -1.412903197764E-01 -1.595020478542E-01 -3.272419778033E-01
C5  8.012650685575E-02  7.382792410720E-02  2.095541154239E-01
C6 -8.012650685575E-02 -7.382792410720E-02 -2.095541154239E-01
C7  1.077712053020E-01  1.989911482441E-01  1.381535562816E-01
C8 -1.077712053020E-01 -1.989911482441E-01 -1.381535562816E-01
C9  4.643165286334E-02  1.122309330084E-01  2.256031125007E-02
C10 -4.643165286334E-02 -1.122309330084E-01 -2.256031125007E-02
C11  7.307988888098E-02  2.377438659913E-01 -5.050958570239E-02
C12 -7.307988888098E-02 -2.377438659913E-01  5.050958570239E-02
C13 -1.152292192280E-02 -1.510041319392E-01  1.645675495366E-01
C14  1.152292192280E-02  1.510041319392E-01 -1.645675495366E-01
C15 -3.675943981120E-02 -2.786397271702E-01  2.393398752699E-01
C16  3.675943981120E-02  2.786397271702E-01 -2.393398752699E-01
C17  2.651074165477E-02 -1.921629350874E-01  3.512529898593E-01
C18 -2.651074165477E-02  1.921629350874E-01 -3.512529898593E-01
H19  1.656857838246E-01  9.752242788247E-02  4.853381040701E-01
H20 -1.656857838246E-01 -9.752242788247E-02 -4.853381040701E-01
H21  2.067275148578E-01  3.309853102858E-01  3.598797580196E-01
H22 -2.067275148578E-01 -3.309853102858E-01 -3.598797580196E-01
H23  1.784902031968E-01  3.676115219063E-01  1.720295924429E-01
H24 -1.784902031968E-01 -3.676115219063E-01 -1.720295924429E-01
H25  1.429823834935E-01  4.067308404636E-01 -1.668915921018E-02
H26 -1.429823834935E-01 -4.067308404636E-01  1.668915921018E-02
H27 -1.070272855865E-01 -4.470488932393E-01  2.048772279036E-01
H28  1.070272855865E-01  4.470488932393E-01 -2.048772279036E-01
H29  6.051400456485E-03 -2.929870310556E-01  4.065610646586E-01
H30 -6.051400456485E-03  2.929870310556E-01 -4.065610646586E-01
C31 -4.547621061966E-01 -4.278670830342E-01  3.856286244687E-01
C32  4.547621061966E-01  4.278670830342E-01 -3.856286244687E-01
C33  4.844526856395E-01 -3.081288472273E-01  2.994598929477E-01
C34 -4.844526856395E-01  3.081288472273E-01 -2.994598929477E-01
C35  4.983643720677E-01 -4.078016819039E-01  1.953805017497E-01
C36 -4.983643720677E-01  4.078016819039E-01 -1.953805017497E-01
C37  4.413481732222E-01 -2.877746504107E-01  1.070926177072E-01
C38 -4.413481732222E-01  2.877746504107E-01 -1.070926177072E-01
C39  4.607050033075E-01 -3.847403023257E-01  6.102913469444E-03
C40 -4.607050033075E-01  3.847403023257E-01 -6.102913469444E-03
C41  4.048082031683E-01 -2.638278760179E-01 -8.348116910054E-02
C42 -4.048082031683E-01  2.638278760179E-01  8.348116910054E-02
C43 -4.230792971651E-01  3.617588955822E-01  1.832284627857E-01
C44  4.230792971651E-01 -3.617588955822E-01 -1.832284627857E-01
C45 -3.617923122281E-01  2.426404225520E-01  2.758475839959E-01
C46  3.617923122281E-01 -2.426404225520E-01 -2.758475839959E-01
C47 -3.768889489162E-01  3.445977463256E-01  3.737851856090E-01
C48  3.768889489162E-01 -3.445977463256E-01 -3.737851856090E-01
H49 -4.650473660394E-01 -3.480991472865E-01  4.644378037945E-01
H50  4.650473660394E-01  3.480991472865E-01 -4.644378037945E-01
H51  4.253263510710E-01 -1.345952126852E-01  3.087077891993E-01
H52 -4.253263510710E-01  1.345952126852E-01 -3.087077891993E-01
H53  3.813998625373E-01 -1.145488913831E-01  1.162731859629E-01
H54 -3.813998625373E-01  1.145488913831E-01 -1.162731859629E-01
H55  3.441113708287E-01 -9.092145080207E-02 -7.449653562662E-02
H56 -3.441113708287E-01  9.092145080207E-02  7.449653562662E-02
H57 -3.014013941768E-01  6.975262199491E-02  2.665749136565E-01
H58  3.014013941768E-01 -6.975262199491E-02 -2.665749136565E-01
H59 -3.291524102495E-01  2.524276040267E-01  4.437691114446E-01
H60  3.291524102495E-01 -2.524276040267E-01 -4.437691114446E-01


#===END

data_OPT_STEP_31

_symmetry_space_group_name_H-M 'P 1'
_cell_length_a      7.31222456
_cell_length_b      5.89796089
_cell_length_c     13.18486524
_cell_angle_alpha  101.218586
_cell_angle_beta  113.663256
_cell_angle_gamma   85.621621

loop_
_atom_site_label
_atom_site_fract_x
_atom_site_fract_y
_atom_site_fract_z
C1  1.172959216361E-01  3.055708635550E-02  3.959128451995E-01
C2 -1.172959216361E-01 -3.055708635550E-02 -3.959128451995E-01
C3  1.414533234498E-01  1.597918331526E-01  3.272151000990E-01
C4 -1.414533234498E-01 -1.597918331526E-01 -3.272151000990E-01
C5  8.017744998926E-02  7.405704765122E-02  2.095451653872E-01
C6 -8.017744998926E-02 -7.405704765122E-02 -2.095451653872E-01
C7  1.076701799657E-01  1.992023816287E-01  1.380769506065E-01
C8 -1.076701799657E-01 -1.992023816287E-01 -1.380769506065E-01
C9  4.635919660816E-02  1.122890069547E-01  2.251366957625E-02
C10 -4.635919660816E-02 -1.122890069547E-01 -2.251366957625E-02
C11  7.298921809396E-02  2.376998479438E-01 -5.060713696196E-02
C12 -7.298921809396E-02 -2.376998479438E-01  5.060713696196E-02
C13 -1.142674767841E-02 -1.508318647662E-01  1.646368955653E-01
C14  1.142674767841E-02  1.508318647662E-01 -1.646368955653E-01
C15 -3.658720795044E-02 -2.784016854764E-01  2.394686577266E-01
C16  3.658720795044E-02  2.784016854764E-01 -2.394686577266E-01
C17  2.669385023343E-02 -1.918106335451E-01  3.513513577207E-01
C18 -2.669385023343E-02  1.918106335451E-01 -3.513513577207E-01
H19  1.659908930262E-01  9.789635426297E-02  4.853484395974E-01
H20 -1.659908930262E-01 -9.789635426297E-02 -4.853484395974E-01
H21  2.068681787570E-01  3.313100566683E-01  3.597905284423E-01
H22 -2.068681787570E-01 -3.313100566683E-01 -3.597905284423E-01
H23  1.783755442495E-01  3.678416734887E-01  1.718896038267E-01
H24 -1.783755442495E-01 -3.678416734887E-01 -1.718896038267E-01
H25  1.428439761011E-01  4.067336112946E-01 -1.685141532915E-02
H26 -1.428439761011E-01 -4.067336112946E-01  1.685141532915E-02
H27 -1.068509531407E-01 -4.468354349595E-01  2.050634834706E-01
H28  1.068509531407E-01  4.468354349595E-01 -2.050634834706E-01
H29  6.265840122004E-03 -2.925797493735E-01  4.066955015433E-01
H30 -6.265840122003E-03  2.925797493735E-01 -4.066955015433E-01
C31 -4.547173409313E-01 -4.278716521733E-01  3.856470607922E-01
C32  4.547173409313E-01  4.278716521733E-01 -3.856470607922E-01
C33  4.845482718945E-01 -3.080955583459E-01  2.995402360751E-01
C34 -4.845482718945E-01  3.080955583459E-01 -2.995402360751E-01
C35  4.985698600082E-01 -4.077040402795E-01  1.954527389196E-01
C36 -4.985698600082E-01  4.077040402795E-01 -1.954527389196E-01
C37  4.414780661380E-01 -2.877048474535E-01  1.071955522340E-01
C38 -4.414780661380E-01  2.877048474535E-01 -1.071955522340E-01
C39  4.606938964388E-01 -3.847417176604E-01  6.140096380111E-03
C40 -4.606938964388E-01  3.847417176604E-01 -6.140096380111E-03
C41  4.046862128608E-01 -2.638727334464E-01 -8.342113111482E-02
C42 -4.046862128608E-01  2.638727334464E-01  8.342113111482E-02
C43 -4.228241056020E-01  3.618742959964E-01  1.832302299404E-01
C44  4.228241056020E-01 -3.618742959964E-01 -1.832302299404E-01
C45 -3.614555054212E-01  2.427852943399E-01  2.758205475486E-01
C46  3.614555054212E-01 -2.427852943399E-01 -2.758205475486E-01
C47 -3.766921417405E-01  3.446618321942E-01  3.737552157205E-01
C48  3.766921417405E-01 -3.446618321942E-01 -3.737552157205E-01
H49 -4.651125412439E-01 -3.481763293872E-01  4.644581174044E-01
H50  4.651125412439E-01  3.481763293872E-01 -4.644581174044E-01
H51  4.253444361600E-01 -1.345952840379E-01  3.088338093416E-01
H52 -4.253444361600E-01  1.345952840379E-01 -3.088338093416E-01
H53  3.815279032581E-01 -1.144759442110E-01  1.164354590418E-01
H54 -3.815279032581E-01  1.144759442110E-01 -1.164354590418E-01
H55  3.440684951701E-01 -9.091841293549E-02 -7.436014669217E-02
H56 -3.440684951701E-01  9.091841293549E-02  7.436014669217E-02
H57 -3.008705282654E-01  6.999462237220E-02  2.665303905089E-01
H58  3.008705282654E-01 -6.999462237220E-02 -2.665303905089E-01
H59 -3.289963694612E-01  2.524569441610E-01  4.436933938989E-01
H60  3.289963694612E-01 -2.524569441610E-01 -4.436933938989E-01


#===END

data_OPT_STEP_32

_symmetry_space_group_name_H-M 'P 1'
_cell_length_a      7.31263852
_cell_length_b      5.89879544
_cell_length_c     13.18542966
_cell_angle_alpha  101.223268
_cell_angle_beta  113.683296
_cell_angle_gamma   85.611141

loop_
_atom_site_label
_atom_site_fract_x
_atom_site_fract_y
_atom_site_fract_z
C1  1.172534356875E-01  3.045918673486E-02  3.959025806696E-01
C2 -1.172534356875E-01 -3.045918673486E-02 -3.959025806696E-01
C3  1.414186537548E-01  1.596927339351E-01  3.272269954745E-01
C4 -1.414186537548E-01 -1.596927339351E-01 -3.272269954745E-01
C5  8.015661683645E-02  7.399486518860E-02  2.095481622170E-01
C6 -8.015661683645E-02 -7.399486518860E-02 -2.095481622170E-01
C7  1.076722866355E-01  1.991416959783E-01  1.381062799277E-01
C8 -1.076722866355E-01 -1.991416959783E-01 -1.381062799277E-01
C9  4.636319427037E-02  1.122683231728E-01  2.253187445563E-02
C10 -4.636319427037E-02 -1.122683231728E-01 -2.253187445563E-02
C11  7.299349099438E-02  2.376931762389E-01 -5.056591512385E-02
C12 -7.299349099438E-02 -2.376931762389E-01  5.056591512385E-02
C13 -1.145192168783E-02 -1.508572970145E-01  1.646050387240E-01
C14  1.145192168783E-02  1.508572970145E-01 -1.646050387240E-01
C15 -3.665861748852E-02 -2.784076564051E-01  2.394084559905E-01
C16  3.665861748852E-02  2.784076564051E-01 -2.394084559905E-01
C17  2.658287113982E-02 -1.918294583570E-01  3.513007717733E-01
C18 -2.658287113982E-02  1.918294583570E-01 -3.513007717733E-01
H19  1.659968549021E-01  9.774051516763E-02  4.853519352194E-01
H20 -1.659968549021E-01 -9.774051516763E-02 -4.853519352194E-01
H21  2.068660502891E-01  3.311654927548E-01  3.598378959664E-01
H22 -2.068660502891E-01 -3.311654927548E-01 -3.598378959664E-01
H23  1.784020702536E-01  3.677444472841E-01  1.719494153025E-01
H24 -1.784020702536E-01 -3.677444472841E-01 -1.719494153025E-01
H25  1.428627282464E-01  4.066912578050E-01 -1.678091434655E-02
H26 -1.428627282464E-01 -4.066912578050E-01  1.678091434655E-02
H27 -1.069515764932E-01 -4.468049907668E-01  2.049757305009E-01
H28  1.069515764932E-01  4.468049907668E-01 -2.049757305009E-01
H29  6.116487504190E-03 -2.925859908401E-01  4.066241136271E-01
H30 -6.116487504189E-03  2.925859908401E-01 -4.066241136271E-01
C31 -4.546997594434E-01 -4.278588102059E-01  3.856478565206E-01
C32  4.546997594434E-01  4.278588102059E-01 -3.856478565206E-01
C33  4.845702030513E-01 -3.080926340143E-01  2.995359122962E-01
C34 -4.845702030513E-01  3.080926340143E-01 -2.995359122962E-01
C35  4.985967043554E-01 -4.076922524483E-01  1.954537390959E-01
C36 -4.985967043554E-01  4.076922524483E-01 -1.954537390959E-01
C37  4.415450495627E-01 -2.876801342996E-01  1.072017890577E-01
C38 -4.415450495627E-01  2.876801342996E-01 -1.072017890577E-01
C39  4.607191809105E-01 -3.847374003818E-01  6.141112433588E-03
C40 -4.607191809105E-01  3.847374003818E-01 -6.141112433588E-03
C41  4.047240851367E-01 -2.638722541529E-01 -8.342082739543E-02
C42 -4.047240851367E-01  2.638722541529E-01  8.342082739543E-02
C43 -4.228472834891E-01  3.618766224693E-01  1.832289536695E-01
C44  4.228472834891E-01 -3.618766224693E-01 -1.832289536695E-01
C45 -3.614655482288E-01  2.428061898119E-01  2.758283497852E-01
C46  3.614655482288E-01 -2.428061898119E-01 -2.758283497852E-01
C47 -3.767031173788E-01  3.446775868864E-01  3.737567405322E-01
C48  3.767031173788E-01 -3.446775868864E-01 -3.737567405322E-01
H49 -4.650579387088E-01 -3.481454142217E-01  4.644637671974E-01
H50  4.650579387088E-01  3.481454142217E-01 -4.644637671974E-01
H51  4.253798334241E-01 -1.345985501572E-01  3.088236657102E-01
H52 -4.253798334241E-01  1.345985501572E-01 -3.088236657102E-01
H53  3.816582298821E-01 -1.144301568577E-01  1.164504390686E-01
H54 -3.816582298821E-01  1.144301568577E-01 -1.164504390686E-01
H55  3.441123180407E-01 -9.092645501753E-02 -7.436497728875E-02
H56 -3.441123180407E-01  9.092645501753E-02  7.436497728875E-02
H57 -3.008272191409E-01  7.005500810902E-02  2.665565449214E-01
H58  3.008272191409E-01 -7.005500810902E-02 -2.665565449214E-01
H59 -3.289656942530E-01  2.525053176067E-01  4.437087847818E-01
H60  3.289656942530E-01 -2.525053176067E-01 -4.437087847818E-01


#===END

data_OPT_STEP_33

_symmetry_space_group_name_H-M 'P 1'
_cell_length_a      7.31243104
_cell_length_b      5.89978930
_cell_length_c     13.18626080
_cell_angle_alpha  101.217610
_cell_angle_beta  113.719642
_cell_angle_gamma   85.600055

loop_
_atom_site_label
_atom_site_fract_x
_atom_site_fract_y
_atom_site_fract_z
C1  1.172403695490E-01  3.012599936339E-02  3.958896856577E-01
C2 -1.172403695490E-01 -3.012599936339E-02 -3.958896856577E-01
C3  1.414851297783E-01  1.593589760101E-01  3.272568147710E-01
C4 -1.414851297783E-01 -1.593589760101E-01 -3.272568147710E-01
C5  8.022980880594E-02  7.375787736959E-02  2.095615783708E-01
C6 -8.022980880594E-02 -7.375787736959E-02 -2.095615783708E-01
C7  1.077417096443E-01  1.989734668704E-01  1.381585856750E-01
C8 -1.077417096443E-01 -1.989734668704E-01 -1.381585856750E-01
C9  4.636956734293E-02  1.122423120636E-01  2.256123764260E-02
C10 -4.636956734293E-02 -1.122423120636E-01 -2.256123764260E-02
C11  7.301510371187E-02  2.377239520472E-01 -5.049652151413E-02
C12 -7.301510371187E-02 -2.377239520472E-01  5.049652151413E-02
C13 -1.144022886593E-02 -1.510143762670E-01  1.645562855167E-01
C14  1.144022886593E-02  1.510143762670E-01 -1.645562855167E-01
C15 -3.674534310347E-02 -2.785614664278E-01  2.393121761338E-01
C16  3.674534310347E-02  2.785614664278E-01 -2.393121761338E-01
C17  2.649210012915E-02 -1.920734021841E-01  3.512251353398E-01
C18 -2.649210012915E-02  1.920734021841E-01 -3.512251353398E-01
H19  1.659554504678E-01  9.736071386259E-02  4.853500364446E-01
H20 -1.659554504678E-01 -9.736071386259E-02 -4.853500364446E-01
H21  2.069252686870E-01  3.308065661668E-01  3.599131851014E-01
H22 -2.069252686870E-01 -3.308065661668E-01 -3.599131851014E-01
H23  1.785169210344E-01  3.675219937912E-01  1.720516465781E-01
H24 -1.785169210344E-01 -3.675219937912E-01 -1.720516465781E-01
H25  1.429185633523E-01  4.066689255863E-01 -1.666255075961E-02
H26 -1.429185633523E-01 -4.066689255863E-01  1.666255075961E-02
H27 -1.070955879593E-01 -4.468970663539E-01  2.048341399569E-01
H28  1.070955879593E-01  4.468970663539E-01 -2.048341399569E-01
H29  5.891601993804E-03 -2.927968289041E-01  4.065078870648E-01
H30 -5.891601993804E-03  2.927968289041E-01 -4.065078870648E-01
C31 -4.547473225061E-01 -4.278206980858E-01  3.856270324976E-01
C32  4.547473225061E-01  4.278206980858E-01 -3.856270324976E-01
C33  4.845430985088E-01 -3.080640605066E-01  2.994938576673E-01
C34 -4.845430985088E-01  3.080640605066E-01 -2.994938576673E-01
C35  4.985639793179E-01 -4.076785311138E-01  1.954296421297E-01
C36 -4.985639793179E-01  4.076785311138E-01 -1.954296421297E-01
C37  4.415375526167E-01 -2.876798007045E-01  1.071591744381E-01
C38 -4.415375526167E-01  2.876798007045E-01 -1.071591744381E-01
C39  4.607198305752E-01 -3.847467544853E-01  6.118233646215E-03
C40 -4.607198305752E-01  3.847467544853E-01 -6.118233646215E-03
C41  4.047806420105E-01 -2.638770860653E-01 -8.345469407735E-02
C42 -4.047806420105E-01  2.638770860653E-01  8.345469407735E-02
C43 -4.229441281703E-01  3.618727861459E-01  1.832356803962E-01
C44  4.229441281703E-01 -3.618727861459E-01 -1.832356803962E-01
C45 -3.616507586148E-01  2.427806478239E-01  2.758411605510E-01
C46  3.616507586148E-01 -2.427806478239E-01 -2.758411605510E-01
C47 -3.768562233953E-01  3.446853993501E-01  3.737585011066E-01
C48  3.768562233953E-01 -3.446853993501E-01 -3.737585011066E-01
H49 -4.650586127527E-01 -3.480906342150E-01  4.644389755786E-01
H50  4.650586127527E-01  3.480906342150E-01 -4.644389755786E-01
H51  4.253949706853E-01 -1.345612857360E-01  3.087546414303E-01
H52 -4.253949706853E-01  1.345612857360E-01 -3.087546414303E-01
H53  3.816246120481E-01 -1.144567584788E-01  1.163685090987E-01
H54 -3.816246120481E-01  1.144567584788E-01 -1.163685090987E-01
H55  3.441541769746E-01 -9.095074241930E-02 -7.443550697625E-02
H56 -3.441541769746E-01  9.095074241930E-02  7.443550697625E-02
H57 -3.010950642160E-01  6.999834531048E-02  2.665835782057E-01
H58  3.010950642160E-01 -6.999834531048E-02 -2.665835782057E-01
H59 -3.292042947689E-01  2.524989828300E-01  4.437136027499E-01
H60  3.292042947689E-01 -2.524989828300E-01 -4.437136027499E-01


#===END

data_OPT_STEP_34

_symmetry_space_group_name_H-M 'P 1'
_cell_length_a      7.31252954
_cell_length_b      5.89907286
_cell_length_c     13.18562836
_cell_angle_alpha  101.224053
_cell_angle_beta  113.690584
_cell_angle_gamma   85.607603

loop_
_atom_site_label
_atom_site_fract_x
_atom_site_fract_y
_atom_site_fract_z
C1  1.172510158161E-01  3.036955100581E-02  3.958977549650E-01
C2 -1.172510158161E-01 -3.036955100581E-02 -3.958977549650E-01
C3  1.414551474226E-01  1.595917816099E-01  3.272362103544E-01
C4 -1.414551474226E-01 -1.595917816099E-01 -3.272362103544E-01
C5  8.019521281398E-02  7.391996510898E-02  2.095530803922E-01
C6 -8.019521281398E-02 -7.391996510898E-02 -2.095530803922E-01
C7  1.077053513522E-01  1.990890116549E-01  1.381222270666E-01
C8 -1.077053513522E-01 -1.990890116549E-01 -1.381222270666E-01
C9  4.636593761571E-02  1.122610285113E-01  2.254032368615E-02
C10 -4.636593761571E-02 -1.122610285113E-01 -2.254032368615E-02
C11  7.299728553217E-02  2.377035791952E-01 -5.054563349538E-02
C12 -7.299728553217E-02 -2.377035791952E-01  5.054563349538E-02
C13 -1.143914567024E-02 -1.509066415898E-01  1.645905943251E-01
C14  1.143914567024E-02  1.509066415898E-01 -1.645905943251E-01
C15 -3.668615837880E-02 -2.784467140771E-01  2.393794720619E-01
C16  3.668615837880E-02  2.784467140771E-01 -2.393794720619E-01
C17  2.654552940357E-02 -1.918868362327E-01  3.512767954502E-01
C18 -2.654552940357E-02  1.918868362327E-01 -3.512767954502E-01
H19  1.659920254553E-01  9.763595028929E-02  4.853501851506E-01
H20 -1.659920254553E-01 -9.763595028929E-02 -4.853501851506E-01
H21  2.069148141004E-01  3.310507845040E-01  3.598656705996E-01
H22 -2.069148141004E-01 -3.310507845040E-01 -3.598656705996E-01
H23  1.784493266341E-01  3.676767851425E-01  1.719801833434E-01
H24 -1.784493266341E-01 -3.676767851425E-01 -1.719801833434E-01
H25  1.428782840172E-01  4.066864224840E-01 -1.674569181318E-02
H26 -1.428782840172E-01 -4.066864224840E-01  1.674569181318E-02
H27 -1.070002599591E-01 -4.468255890312E-01  2.049331855960E-01
H28  1.070002599591E-01  4.468255890312E-01 -2.049331855960E-01
H29  6.024354601969E-03 -2.926259044321E-01  4.065855116728E-01
H30 -6.024354601969E-03  2.926259044321E-01 -4.065855116728E-01
C31 -4.547030459224E-01 -4.278407515727E-01  3.856445384503E-01
C32  4.547030459224E-01  4.278407515727E-01 -3.856445384503E-01
C33  4.845609736663E-01 -3.080837971413E-01  2.995284726954E-01
C34 -4.845609736663E-01  3.080837971413E-01 -2.995284726954E-01
C35  4.985862741202E-01 -4.076886722252E-01  1.954486237808E-01
C36 -4.985862741202E-01  4.076886722252E-01 -1.954486237808E-01
C37  4.415400840476E-01 -2.876808751461E-01  1.071949296620E-01
C38 -4.415400840476E-01  2.876808751461E-01 -1.071949296620E-01
C39  4.607174722804E-01 -3.847401963714E-01  6.137349046679E-03
C40 -4.607174722804E-01  3.847401963714E-01 -6.137349046679E-03
C41  4.047377348722E-01 -2.638739998126E-01 -8.342377558328E-02
C42 -4.047377348722E-01  2.638739998126E-01  8.342377558328E-02
C43 -4.228757815567E-01  3.618742928798E-01  1.832260206195E-01
C44  4.228757815567E-01 -3.618742928798E-01 -1.832260206195E-01
C45 -3.615202239575E-01  2.427966984427E-01  2.758238330137E-01
C46  3.615202239575E-01 -2.427966984427E-01 -2.758238330137E-01
C47 -3.767370208810E-01  3.446855979784E-01  3.737538918027E-01
C48  3.767370208810E-01 -3.446855979784E-01 -3.737538918027E-01
H49 -4.650447519811E-01 -3.481248805737E-01  4.644621481009E-01
H50  4.650447519811E-01  3.481248805737E-01 -4.644621481009E-01
H51  4.253773165465E-01 -1.345893709656E-01  3.088115187555E-01
H52 -4.253773165465E-01  1.345893709656E-01 -3.088115187555E-01
H53  3.816364339123E-01 -1.144427935148E-01  1.164355124120E-01
H54 -3.816364339123E-01  1.144427935148E-01 -1.164355124120E-01
H55  3.441163400405E-01 -9.093579232817E-02 -7.437477414019E-02
H56 -3.441163400405E-01  9.093579232817E-02  7.437477414019E-02
H57 -3.009079251042E-01  7.003440212997E-02  2.665504515270E-01
H58  3.009079251042E-01 -7.003440212997E-02 -2.665504515270E-01
H59 -3.290225389612E-01  2.525124588248E-01  4.437055121761E-01
H60  3.290225389612E-01 -2.525124588248E-01 -4.437055121761E-01


#===END

data_OPT_STEP_35

_symmetry_space_group_name_H-M 'P 1'
_cell_length_a      7.31285326
_cell_length_b      5.89918317
_cell_length_c     13.18591623
_cell_angle_alpha  101.226159
_cell_angle_beta  113.700694
_cell_angle_gamma   85.603637

loop_
_atom_site_label
_atom_site_fract_x
_atom_site_fract_y
_atom_site_fract_z
C1  1.172629286634E-01  3.028938212647E-02  3.958988577638E-01
C2 -1.172629286634E-01 -3.028938212647E-02 -3.958988577638E-01
C3  1.414639367576E-01  1.595308496235E-01  3.272480533625E-01
C4 -1.414639367576E-01 -1.595308496235E-01 -3.272480533625E-01
C5  8.020397585416E-02  7.387937453079E-02  2.095581300899E-01
C6 -8.020397585416E-02 -7.387937453079E-02 -2.095581300899E-01
C7  1.077409598457E-01  1.990478649879E-01  1.381425869755E-01
C8 -1.077409598457E-01 -1.990478649879E-01 -1.381425869755E-01
C9  4.638944487005E-02  1.122440964073E-01  2.255233202343E-02
C10 -4.638944487005E-02 -1.122440964073E-01 -2.255233202343E-02
C11  7.302699172453E-02  2.376993427358E-01 -5.052031230564E-02
C12 -7.302699172453E-02 -2.376993427358E-01  5.052031230564E-02
C13 -1.145382802670E-02 -1.509313047496E-01  1.645731475691E-01
C14  1.145382802670E-02  1.509313047496E-01 -1.645731475691E-01
C15 -3.671315698158E-02 -2.784791941787E-01  2.393500646439E-01
C16  3.671315698158E-02  2.784791941787E-01 -2.393500646439E-01
C17  2.652625301939E-02 -1.919447656680E-01  3.512556794428E-01
C18 -2.652625301939E-02  1.919447656680E-01 -3.512556794428E-01
H19  1.660199181382E-01  9.753320932106E-02  4.853572944278E-01
H20 -1.660199181382E-01 -9.753320932106E-02 -4.853572944278E-01
H21  2.069605904940E-01  3.309682993105E-01  3.599053070125E-01
H22 -2.069605904940E-01 -3.309682993105E-01 -3.599053070125E-01
H23  1.785005798122E-01  3.676240589751E-01  1.720180165282E-01
H24 -1.785005798122E-01 -3.676240589751E-01 -1.720180165282E-01
H25  1.429137882844E-01  4.066758360366E-01 -1.670358303191E-02
H26 -1.429137882844E-01 -4.066758360366E-01  1.670358303191E-02
H27 -1.070558452803E-01 -4.468402777047E-01  2.048864898223E-01
H28  1.070558452803E-01  4.468402777047E-01 -2.048864898223E-01
H29  5.974923249749E-03 -2.926865935218E-01  4.065485900781E-01
H30 -5.974923249749E-03  2.926865935218E-01 -4.065485900781E-01
C31 -4.547024562883E-01 -4.278426950306E-01  3.856394607389E-01
C32  4.547024562883E-01  4.278426950306E-01 -3.856394607389E-01
C33  4.845714512750E-01 -3.080784378233E-01  2.995245547381E-01
C34 -4.845714512750E-01  3.080784378233E-01 -2.995245547381E-01
C35  4.985707552442E-01 -4.076995567398E-01  1.954412151831E-01
C36 -4.985707552442E-01  4.076995567398E-01 -1.954412151831E-01
C37  4.415445624039E-01 -2.876801766452E-01  1.071907246732E-01
C38 -4.415445624039E-01  2.876801766452E-01 -1.071907246732E-01
C39  4.607268848603E-01 -3.847351632337E-01  6.136793660473E-03
C40 -4.607268848603E-01  3.847351632337E-01 -6.136793660473E-03
C41  4.047395905453E-01 -2.638737159233E-01 -8.342646401255E-02
C42 -4.047395905453E-01  2.638737159233E-01  8.342646401255E-02
C43 -4.228930390583E-01  3.618635410015E-01  1.832227692114E-01
C44  4.228930390583E-01 -3.618635410015E-01 -1.832227692114E-01
C45 -3.615378291023E-01  2.427858693618E-01  2.758235526219E-01
C46  3.615378291023E-01 -2.427858693618E-01 -2.758235526219E-01
C47 -3.767592342319E-01  3.446730326319E-01  3.737490878195E-01
C48  3.767592342319E-01 -3.446730326319E-01 -3.737490878195E-01
H49 -4.649969214294E-01 -3.481176116968E-01  4.644656689267E-01
H50  4.649969214294E-01  3.481176116968E-01 -4.644656689267E-01
H51  4.254178303251E-01 -1.345692566955E-01  3.088085040317E-01
H52 -4.254178303251E-01  1.345692566955E-01 -3.088085040317E-01
H53  3.816560886619E-01 -1.144343232841E-01  1.164322846090E-01
H54 -3.816560886619E-01  1.144343232841E-01 -1.164322846090E-01
H55  3.440898399695E-01 -9.095025519251E-02 -7.438701563570E-02
H56 -3.440898399695E-01  9.095025519251E-02  7.438701563570E-02
H57 -3.009169009096E-01  7.002820747581E-02  2.665544606103E-01
H58  3.009169009096E-01 -7.002820747581E-02 -2.665544606103E-01
H59 -3.290722558146E-01  2.524934661977E-01  4.436991807627E-01
H60  3.290722558146E-01 -2.524934661977E-01 -4.436991807627E-01


#===END

data_OPT_STEP_36

_symmetry_space_group_name_H-M 'P 1'
_cell_length_a      7.31330886
_cell_length_b      5.89918907
_cell_length_c     13.18618857
_cell_angle_alpha  101.226314
_cell_angle_beta  113.710074
_cell_angle_gamma   85.601579

loop_
_atom_site_label
_atom_site_fract_x
_atom_site_fract_y
_atom_site_fract_z
C1  1.172725211545E-01  3.019952261447E-02  3.958966845852E-01
C2 -1.172725211545E-01 -3.019952261447E-02 -3.958966845852E-01
C3  1.415018855474E-01  1.594440399984E-01  3.272592441810E-01
C4 -1.415018855474E-01 -1.594440399984E-01 -3.272592441810E-01
C5  8.022586642677E-02  7.382524909924E-02  2.095631774306E-01
C6 -8.022586642677E-02 -7.382524909924E-02 -2.095631774306E-01
C7  1.077784401019E-01  1.990048953340E-01  1.381610240025E-01
C8 -1.077784401019E-01 -1.990048953340E-01 -1.381610240025E-01
C9  4.639959415974E-02  1.122376081358E-01  2.256217785755E-02
C10 -4.639959415974E-02 -1.122376081358E-01 -2.256217785755E-02
C11  7.303328059426E-02  2.377165356632E-01 -5.049891754737E-02
C12 -7.303328059426E-02 -2.377165356632E-01  5.049891754737E-02
C13 -1.145213366679E-02 -1.509743061417E-01  1.645581207974E-01
C14  1.145213366679E-02  1.509743061417E-01 -1.645581207974E-01
C15 -3.673964838804E-02 -2.785257130298E-01  2.393213157295E-01
C16  3.673964838804E-02  2.785257130298E-01 -2.393213157295E-01
C17  2.647726398337E-02 -1.919983234151E-01  3.512311876560E-01
C18 -2.647726398337E-02  1.919983234151E-01 -3.512311876560E-01
H19  1.660158794762E-01  9.743920075689E-02  4.853576591533E-01
H20 -1.660158794762E-01 -9.743920075689E-02 -4.853576591533E-01
H21  2.070364276503E-01  3.308618295957E-01  3.599404237171E-01
H22 -2.070364276503E-01 -3.308618295957E-01 -3.599404237171E-01
H23  1.785541063094E-01  3.675721269429E-01  1.720527497944E-01
H24 -1.785541063094E-01 -3.675721269429E-01 -1.720527497944E-01
H25  1.429477529638E-01  4.066767123475E-01 -1.666476901687E-02
H26 -1.429477529638E-01 -4.066767123475E-01  1.666476901687E-02
H27 -1.071105976088E-01 -4.468710635356E-01  2.048430096788E-01
H28  1.071105976088E-01  4.468710635356E-01 -2.048430096788E-01
H29  5.889131693525E-03 -2.927401604734E-01  4.065091884799E-01
H30 -5.889131693525E-03  2.927401604734E-01 -4.065091884799E-01
C31 -4.546798191917E-01 -4.278372910936E-01  3.856395891129E-01
C32  4.546798191917E-01  4.278372910936E-01 -3.856395891129E-01
C33  4.845844866849E-01 -3.080770193005E-01  2.995202490542E-01
C34 -4.845844866849E-01  3.080770193005E-01 -2.995202490542E-01
C35  4.985876864358E-01 -4.076954260625E-01  1.954410988954E-01
C36 -4.985876864358E-01  4.076954260625E-01 -1.954410988954E-01
C37  4.415394509602E-01 -2.876874577787E-01  1.071827850748E-01
C38 -4.415394509602E-01  2.876874577787E-01 -1.071827850748E-01
C39  4.607261776855E-01 -3.847356576180E-01  6.132843519405E-03
C40 -4.607261776855E-01  3.847356576180E-01 -6.132843519405E-03
C41  4.047461057008E-01 -2.638691107650E-01 -8.343086653137E-02
C42 -4.047461057008E-01  2.638691107650E-01  8.343086653137E-02
C43 -4.228930015083E-01  3.618596478767E-01  1.832256430369E-01
C44  4.228930015083E-01 -3.618596478767E-01 -1.832256430369E-01
C45 -3.615322705691E-01  2.427827727705E-01  2.758310059791E-01
C46  3.615322705691E-01 -2.427827727705E-01 -2.758310059791E-01
C47 -3.767268036925E-01  3.446821593868E-01  3.737592865822E-01
C48  3.767268036925E-01 -3.446821593868E-01 -3.737592865822E-01
H49 -4.649423448507E-01 -3.481134777555E-01  4.644704375443E-01
H50  4.649423448507E-01  3.481134777555E-01 -4.644704375443E-01
H51  4.254192105479E-01 -1.345757140313E-01  3.087946455925E-01
H52 -4.254192105479E-01  1.345757140313E-01 -3.087946455925E-01
H53  3.816434559655E-01 -1.144457557595E-01  1.164177162301E-01
H54 -3.816434559655E-01  1.144457557595E-01 -1.164177162301E-01
H55  3.441024680710E-01 -9.094240537125E-02 -7.439511313901E-02
H56 -3.441024680710E-01  9.094240537125E-02  7.439511313901E-02
H57 -3.009315223382E-01  7.001506355620E-02  2.665612891421E-01
H58  3.009315223382E-01 -7.001506355620E-02 -2.665612891421E-01
H59 -3.290165126477E-01  2.525215442611E-01  4.437201487958E-01
H60  3.290165126477E-01 -2.525215442611E-01 -4.437201487958E-01


#===END

data_OPT_STEP_37

_symmetry_space_group_name_H-M 'P 1'
_cell_length_a      7.31375938
_cell_length_b      5.89947094
_cell_length_c     13.18684249
_cell_angle_alpha  101.223631
_cell_angle_beta  113.731656
_cell_angle_gamma   85.596564

loop_
_atom_site_label
_atom_site_fract_x
_atom_site_fract_y
_atom_site_fract_z
C1  1.172742505786E-01  3.005495508007E-02  3.958896870921E-01
C2 -1.172742505786E-01 -3.005495508007E-02 -3.958896870921E-01
C3  1.415457761034E-01  1.593015104182E-01  3.272753431363E-01
C4 -1.415457761034E-01 -1.593015104182E-01 -3.272753431363E-01
C5  8.026673763906E-02  7.372471648269E-02  2.095707965450E-01
C6 -8.026673763906E-02 -7.372471648269E-02 -2.095707965450E-01
C7  1.078202660114E-01  1.989346281248E-01  1.381890960830E-01
C8 -1.078202660114E-01 -1.989346281248E-01 -1.381890960830E-01
C9  4.641803388551E-02  1.122205778391E-01  2.257900559470E-02
C10 -4.641803388551E-02 -1.122205778391E-01 -2.257900559470E-02
C11  7.307323494404E-02  2.377161281462E-01 -5.046027828138E-02
C12 -7.307323494404E-02 -2.377161281462E-01  5.046027828138E-02
C13 -1.145446974666E-02 -1.510380741493E-01  1.645321177881E-01
C14  1.145446974666E-02  1.510380741493E-01 -1.645321177881E-01
C15 -3.676853180467E-02 -2.786042012747E-01  2.392722396140E-01
C16  3.676853180467E-02  2.786042012747E-01 -2.392722396140E-01
C17  2.646566023386E-02 -1.921263000474E-01  3.511937578987E-01
C18 -2.646566023386E-02  1.921263000474E-01 -3.511937578987E-01
H19  1.660036961561E-01  9.727712719858E-02  4.853564611308E-01
H20 -1.660036961561E-01 -9.727712719858E-02 -4.853564611308E-01
H21  2.071032833948E-01  3.306999956052E-01  3.599816081193E-01
H22 -2.071032833948E-01 -3.306999956052E-01 -3.599816081193E-01
H23  1.786341329111E-01  3.674722942746E-01  1.721082382402E-01
H24 -1.786341329111E-01 -3.674722942746E-01 -1.721082382402E-01
H25  1.430322812326E-01  4.066410383261E-01 -1.659848527088E-02
H26 -1.430322812326E-01 -4.066410383261E-01  1.659848527088E-02
H27 -1.071909372738E-01 -4.469115023982E-01  2.047683276296E-01
H28  1.071909372738E-01  4.469115023982E-01 -2.047683276296E-01
H29  5.860000058257E-03 -2.928825322652E-01  4.064538662011E-01
H30 -5.860000058257E-03  2.928825322652E-01 -4.064538662011E-01
C31 -4.546619077188E-01 -4.278458196985E-01  3.856324808830E-01
C32  4.546619077188E-01  4.278458196985E-01 -3.856324808830E-01
C33  4.846113871872E-01 -3.080745791616E-01  2.995063281330E-01
C34 -4.846113871872E-01  3.080745791616E-01 -2.995063281330E-01
C35  4.985780555773E-01 -4.077089450230E-01  1.954288560673E-01
C36 -4.985780555773E-01  4.077089450230E-01 -1.954288560673E-01
C37  4.415516592296E-01 -2.876875087232E-01  1.071656756252E-01
C38 -4.415516592296E-01  2.876875087232E-01 -1.071656756252E-01
C39  4.607126287168E-01 -3.847458482215E-01  6.118958006198E-03
C40 -4.607126287168E-01  3.847458482215E-01 -6.118958006198E-03
C41  4.047438078700E-01 -2.638730754810E-01 -8.345155217141E-02
C42 -4.047438078700E-01  2.638730754810E-01  8.345155217141E-02
C43 -4.229192799081E-01  3.618423430941E-01  1.832297889544E-01
C44  4.229192799081E-01 -3.618423430941E-01 -1.832297889544E-01
C45 -3.615688967066E-01  2.427575371538E-01  2.758412633912E-01
C46  3.615688967066E-01 -2.427575371538E-01 -2.758412633912E-01
C47 -3.767706274552E-01  3.446477265118E-01  3.737584681464E-01
C48  3.767706274552E-01 -3.446477265118E-01 -3.737584681464E-01
H49 -4.648882637974E-01 -3.481298253909E-01  4.644648853514E-01
H50  4.648882637974E-01  3.481298253909E-01 -4.644648853514E-01
H51  4.255062826960E-01 -1.345468097289E-01  3.087775715540E-01
H52 -4.255062826960E-01  1.345468097289E-01 -3.087775715540E-01
H53  3.816883707647E-01 -1.144327693006E-01  1.163923131874E-01
H54 -3.816883707647E-01  1.144327693006E-01 -1.163923131874E-01
H55  3.440852128983E-01 -9.095806065955E-02 -7.443447055625E-02
H56 -3.440852128983E-01  9.095806065955E-02  7.443447055625E-02
H57 -3.009570202931E-01  6.999994456261E-02  2.665877324297E-01
H58  3.009570202931E-01 -6.999994456261E-02 -2.665877324297E-01
H59 -3.290879151047E-01  2.524808351277E-01  4.437227194867E-01
H60  3.290879151047E-01 -2.524808351277E-01 -4.437227194867E-01


#===END

data_OPT_STEP_38

_symmetry_space_group_name_H-M 'P 1'
_cell_length_a      7.31379858
_cell_length_b      5.89967339
_cell_length_c     13.18710148
_cell_angle_alpha  101.226044
_cell_angle_beta  113.736436
_cell_angle_gamma   85.594296

loop_
_atom_site_label
_atom_site_fract_x
_atom_site_fract_y
_atom_site_fract_z
C1  1.172764097591E-01  3.003355270708E-02  3.958862712562E-01
C2 -1.172764097591E-01 -3.003355270708E-02 -3.958862712562E-01
C3  1.415505166306E-01  1.592802541851E-01  3.272784663169E-01
C4 -1.415505166306E-01 -1.592802541851E-01 -3.272784663169E-01
C5  8.026338943902E-02  7.371529013029E-02  2.095709567706E-01
C6 -8.026338943902E-02 -7.371529013029E-02 -2.095709567706E-01
C7  1.078223874096E-01  1.989248351178E-01  1.381968102473E-01
C8 -1.078223874096E-01 -1.989248351178E-01 -1.381968102473E-01
C9  4.642206967315E-02  1.122158321877E-01  2.258440469104E-02
C10 -4.642206967315E-02 -1.122158321877E-01 -2.258440469104E-02
C11  7.308508922359E-02  2.377092730840E-01 -5.044731007741E-02
C12 -7.308508922359E-02 -2.377092730840E-01  5.044731007741E-02
C13 -1.146751500609E-02 -1.510371194329E-01  1.645217271685E-01
C14  1.146751500609E-02  1.510371194329E-01 -1.645217271685E-01
C15 -3.678568869828E-02 -2.786035904013E-01  2.392546516632E-01
C16  3.678568869828E-02  2.786035904013E-01 -2.392546516632E-01
C17  2.645371297770E-02 -1.921347470958E-01  3.511794450459E-01
C18 -2.645371297770E-02  1.921347470958E-01 -3.511794450459E-01
H19  1.660190441094E-01  9.724274386418E-02  4.853564301344E-01
H20 -1.660190441094E-01 -9.724274386418E-02 -4.853564301344E-01
H21  2.071148690048E-01  3.306713089150E-01  3.599914952307E-01
H22 -2.071148690048E-01 -3.306713089150E-01 -3.599914952307E-01
H23  1.786507115142E-01  3.674508741945E-01  1.721249313389E-01
H24 -1.786507115142E-01 -3.674508741945E-01 -1.721249313389E-01
H25  1.430303696408E-01  4.066382931500E-01 -1.657917995431E-02
H26 -1.430303696408E-01 -4.066382931500E-01  1.657917995431E-02
H27 -1.072243809182E-01 -4.468985946654E-01  2.047425216955E-01
H28  1.072243809182E-01  4.468985946654E-01 -2.047425216955E-01
H29  5.825922214503E-03 -2.928791378579E-01  4.064326770845E-01
H30 -5.825922214503E-03  2.928791378579E-01 -4.064326770845E-01
C31 -4.546568559044E-01 -4.278583948252E-01  3.856290687473E-01
C32  4.546568559044E-01  4.278583948252E-01 -3.856290687473E-01
C33  4.846134807153E-01 -3.080875426177E-01  2.995046238925E-01
C34 -4.846134807153E-01  3.080875426177E-01 -2.995046238925E-01
C35  4.985791262606E-01 -4.077171521572E-01  1.954271561546E-01
C36 -4.985791262606E-01  4.077171521572E-01 -1.954271561546E-01
C37  4.415581301585E-01 -2.876919297233E-01  1.071673777314E-01
C38 -4.415581301585E-01  2.876919297233E-01 -1.071673777314E-01
C39  4.607235184626E-01 -3.847427892766E-01  6.122515511803E-03
C40 -4.607235184626E-01  3.847427892766E-01 -6.122515511803E-03
C41  4.047528669797E-01 -2.638691146650E-01 -8.344585585476E-02
C42 -4.047528669797E-01  2.638691146650E-01  8.344585585476E-02
C43 -4.229155947920E-01  3.618402285121E-01  1.832265860329E-01
C44  4.229155947920E-01 -3.618402285121E-01 -1.832265860329E-01
C45 -3.615688325680E-01  2.427513272300E-01  2.758348860216E-01
C46  3.615688325680E-01 -2.427513272300E-01 -2.758348860216E-01
C47 -3.767608860345E-01  3.446418937339E-01  3.737537695910E-01
C48  3.767608860345E-01 -3.446418937339E-01 -3.737537695910E-01
H49 -4.648752677927E-01 -3.481466743862E-01  4.644635364809E-01
H50  4.648752677927E-01  3.481466743862E-01 -4.644635364809E-01
H51  4.255108257963E-01 -1.345621265675E-01  3.087777373430E-01
H52 -4.255108257963E-01  1.345621265675E-01 -3.087777373430E-01
H53  3.816832597789E-01 -1.144468350557E-01  1.163927819522E-01
H54 -3.816832597789E-01  1.144468350557E-01 -1.163927819522E-01
H55  3.441015851913E-01 -9.095344867655E-02 -7.442574807766E-02
H56 -3.441015851913E-01  9.095344867655E-02  7.442574807766E-02
H57 -3.009671574428E-01  6.999180541039E-02  2.665773717797E-01
H58  3.009671574428E-01 -6.999180541039E-02 -2.665773717797E-01
H59 -3.290816039947E-01  2.524743360099E-01  4.437160285710E-01
H60  3.290816039947E-01 -2.524743360099E-01 -4.437160285710E-01


#===END

data_OPT_STEP_39

_symmetry_space_group_name_H-M 'P 1'
_cell_length_a      7.31384147
_cell_length_b      5.89967590
_cell_length_c     13.18713647
_cell_angle_alpha  101.226226
_cell_angle_beta  113.737807
_cell_angle_gamma   85.594003

loop_
_atom_site_label
_atom_site_fract_x
_atom_site_fract_y
_atom_site_fract_z
C1  1.172796417925E-01  3.002686066691E-02  3.958873677680E-01
C2 -1.172796417925E-01 -3.002686066691E-02 -3.958873677680E-01
C3  1.415522501259E-01  1.592760931701E-01  3.272803898553E-01
C4 -1.415522501259E-01 -1.592760931701E-01 -3.272803898553E-01
C5  8.026076302422E-02  7.371463384151E-02  2.095714033753E-01
C6 -8.026076302422E-02 -7.371463384151E-02 -2.095714033753E-01
C7  1.078246128053E-01  1.989228294520E-01  1.381990768449E-01
C8 -1.078246128053E-01 -1.989228294520E-01 -1.381990768449E-01
C9  4.642311755032E-02  1.122157429720E-01  2.258567327893E-02
C10 -4.642311755032E-02 -1.122157429720E-01 -2.258567327893E-02
C11  7.308623780387E-02  2.377106243148E-01 -5.044477936794E-02
C12 -7.308623780387E-02 -2.377106243148E-01  5.044477936794E-02
C13 -1.147065080269E-02 -1.510378217706E-01  1.645199430586E-01
C14  1.147065080269E-02  1.510378217706E-01 -1.645199430586E-01
C15 -3.678798922874E-02 -2.786068507551E-01  2.392520123077E-01
C16  3.678798922874E-02  2.786068507551E-01 -2.392520123077E-01
C17  2.645353651270E-02 -1.921400979919E-01  3.511780161500E-01
C18 -2.645353651270E-02  1.921400979919E-01 -3.511780161500E-01
H19  1.660230085638E-01  9.723409366738E-02  4.853583456882E-01
H20 -1.660230085638E-01 -9.723409366738E-02 -4.853583456882E-01
H21  2.071166517991E-01  3.306671267552E-01  3.599927182774E-01
H22 -2.071166517991E-01 -3.306671267552E-01 -3.599927182774E-01
H23  1.786576944352E-01  3.674464234044E-01  1.721293334574E-01
H24 -1.786576944352E-01 -3.674464234044E-01 -1.721293334574E-01
H25  1.430299727573E-01  4.066408781920E-01 -1.657535520178E-02
H26 -1.430299727573E-01 -4.066408781920E-01  1.657535520178E-02
H27 -1.072298179446E-01 -4.469000671706E-01  2.047381723707E-01
H28  1.072298179446E-01  4.469000671706E-01 -2.047381723707E-01
H29  5.821031446164E-03 -2.928815043405E-01  4.064304464321E-01
H30 -5.821031446164E-03  2.928815043405E-01 -4.064304464321E-01
C31 -4.546583275588E-01 -4.278670625592E-01  3.856275330606E-01
C32  4.546583275588E-01  4.278670625592E-01 -3.856275330606E-01
C33  4.846174140197E-01 -3.080906499873E-01  2.995046614647E-01
C34 -4.846174140197E-01  3.080906499873E-01 -2.995046614647E-01
C35  4.985842009567E-01 -4.077172157761E-01  1.954276400939E-01
C36 -4.985842009567E-01  4.077172157761E-01 -1.954276400939E-01
C37  4.415577605157E-01 -2.876939764206E-01  1.071669167234E-01
C38 -4.415577605157E-01  2.876939764206E-01 -1.071669167234E-01
C39  4.607264113678E-01 -3.847414339967E-01  6.123356452913E-03
C40 -4.607264113678E-01  3.847414339967E-01 -6.123356452913E-03
C41  4.047546923672E-01 -2.638666318446E-01 -8.344493638859E-02
C42 -4.047546923672E-01  2.638666318446E-01  8.344493638859E-02
C43 -4.229107131008E-01  3.618401301790E-01  1.832269235718E-01
C44  4.229107131008E-01 -3.618401301790E-01 -1.832269235718E-01
C45 -3.615656075689E-01  2.427481803270E-01  2.758343829733E-01
C46  3.615656075689E-01 -2.427481803270E-01 -2.758343829733E-01
C47 -3.767596302715E-01  3.446354302404E-01  3.737527540283E-01
C48  3.767596302715E-01 -3.446354302404E-01 -3.737527540283E-01
H49 -4.648765625007E-01 -3.481603377177E-01  4.644624382692E-01
H50  4.648765625007E-01  3.481603377177E-01 -4.644624382692E-01
H51  4.255069243640E-01 -1.345694515259E-01  3.087767001129E-01
H52 -4.255069243640E-01  1.345694515259E-01 -3.087767001129E-01
H53  3.816851937920E-01 -1.144478034463E-01  1.163926334519E-01
H54 -3.816851937920E-01  1.144478034463E-01 -1.163926334519E-01
H55  3.441083136704E-01 -9.094846363489E-02 -7.442388892260E-02
H56 -3.441083136704E-01  9.094846363489E-02  7.442388892260E-02
H57 -3.009672517516E-01  6.998695557840E-02  2.665762098808E-01
H58  3.009672517516E-01 -6.998695557840E-02 -2.665762098808E-01
H59 -3.290829187038E-01  2.524651615651E-01  4.437143659582E-01
H60  3.290829187038E-01 -2.524651615651E-01 -4.437143659582E-01


#===END

data_OPT_STEP_40

_symmetry_space_group_name_H-M 'P 1'
_cell_length_a      7.31384147
_cell_length_b      5.89967590
_cell_length_c     13.18713647
_cell_angle_alpha  101.226226
_cell_angle_beta  113.737807
_cell_angle_gamma   85.594003

loop_
_atom_site_label
_atom_site_fract_x
_atom_site_fract_y
_atom_site_fract_z
C1  1.172796417925E-01  3.002686066691E-02  3.958873677680E-01
C2 -1.172796417925E-01 -3.002686066691E-02 -3.958873677680E-01
C3  1.415522501259E-01  1.592760931701E-01  3.272803898553E-01
C4 -1.415522501259E-01 -1.592760931701E-01 -3.272803898553E-01
C5  8.026076302422E-02  7.371463384151E-02  2.095714033753E-01
C6 -8.026076302422E-02 -7.371463384151E-02 -2.095714033753E-01
C7  1.078246128053E-01  1.989228294520E-01  1.381990768449E-01
C8 -1.078246128053E-01 -1.989228294520E-01 -1.381990768449E-01
C9  4.642311755032E-02  1.122157429720E-01  2.258567327893E-02
C10 -4.642311755032E-02 -1.122157429720E-01 -2.258567327893E-02
C11  7.308623780387E-02  2.377106243148E-01 -5.044477936794E-02
C12 -7.308623780387E-02 -2.377106243148E-01  5.044477936794E-02
C13 -1.147065080269E-02 -1.510378217706E-01  1.645199430586E-01
C14  1.147065080269E-02  1.510378217706E-01 -1.645199430586E-01
C15 -3.678798922874E-02 -2.786068507551E-01  2.392520123077E-01
C16  3.678798922874E-02  2.786068507551E-01 -2.392520123077E-01
C17  2.645353651270E-02 -1.921400979919E-01  3.511780161500E-01
C18 -2.645353651270E-02  1.921400979919E-01 -3.511780161500E-01
H19  1.660230085638E-01  9.723409366738E-02  4.853583456882E-01
H20 -1.660230085638E-01 -9.723409366738E-02 -4.853583456882E-01
H21  2.071166517991E-01  3.306671267552E-01  3.599927182774E-01
H22 -2.071166517991E-01 -3.306671267552E-01 -3.599927182774E-01
H23  1.786576944352E-01  3.674464234044E-01  1.721293334574E-01
H24 -1.786576944352E-01 -3.674464234044E-01 -1.721293334574E-01
H25  1.430299727573E-01  4.066408781920E-01 -1.657535520178E-02
H26 -1.430299727573E-01 -4.066408781920E-01  1.657535520178E-02
H27 -1.072298179446E-01 -4.469000671706E-01  2.047381723707E-01
H28  1.072298179446E-01  4.469000671706E-01 -2.047381723707E-01
H29  5.821031446164E-03 -2.928815043405E-01  4.064304464321E-01
H30 -5.821031446164E-03  2.928815043405E-01 -4.064304464321E-01
C31 -4.546583275588E-01 -4.278670625592E-01  3.856275330606E-01
C32  4.546583275588E-01  4.278670625592E-01 -3.856275330606E-01
C33  4.846174140197E-01 -3.080906499873E-01  2.995046614647E-01
C34 -4.846174140197E-01  3.080906499873E-01 -2.995046614647E-01
C35  4.985842009567E-01 -4.077172157761E-01  1.954276400939E-01
C36 -4.985842009567E-01  4.077172157761E-01 -1.954276400939E-01
C37  4.415577605157E-01 -2.876939764206E-01  1.071669167234E-01
C38 -4.415577605157E-01  2.876939764206E-01 -1.071669167234E-01
C39  4.607264113678E-01 -3.847414339967E-01  6.123356452913E-03
C40 -4.607264113678E-01  3.847414339967E-01 -6.123356452913E-03
C41  4.047546923672E-01 -2.638666318446E-01 -8.344493638859E-02
C42 -4.047546923672E-01  2.638666318446E-01  8.344493638859E-02
C43 -4.229107131008E-01  3.618401301790E-01  1.832269235718E-01
C44  4.229107131008E-01 -3.618401301790E-01 -1.832269235718E-01
C45 -3.615656075689E-01  2.427481803270E-01  2.758343829733E-01
C46  3.615656075689E-01 -2.427481803270E-01 -2.758343829733E-01
C47 -3.767596302715E-01  3.446354302404E-01  3.737527540283E-01
C48  3.767596302715E-01 -3.446354302404E-01 -3.737527540283E-01
H49 -4.648765625007E-01 -3.481603377177E-01  4.644624382692E-01
H50  4.648765625007E-01  3.481603377177E-01 -4.644624382692E-01
H51  4.255069243640E-01 -1.345694515259E-01  3.087767001129E-01
H52 -4.255069243640E-01  1.345694515259E-01 -3.087767001129E-01
H53  3.816851937920E-01 -1.144478034463E-01  1.163926334519E-01
H54 -3.816851937920E-01  1.144478034463E-01 -1.163926334519E-01
H55  3.441083136704E-01 -9.094846363489E-02 -7.442388892260E-02
H56 -3.441083136704E-01  9.094846363489E-02  7.442388892260E-02
H57 -3.009672517516E-01  6.998695557840E-02  2.665762098808E-01
H58  3.009672517516E-01 -6.998695557840E-02 -2.665762098808E-01
H59 -3.290829187038E-01  2.524651615651E-01  4.437143659582E-01
H60  3.290829187038E-01 -2.524651615651E-01 -4.437143659582E-01


#===END
