###############################################################################
#
#                    CRYSTAL17 CIF FILE
#
###############################################################################

data_OPT_STEP_1

_symmetry_space_group_name_H-M 'P 1'
_cell_length_a      7.56500000
_cell_length_b      7.75000000
_cell_length_c     16.83500000
_cell_angle_alpha   89.150000
_cell_angle_beta   78.420000
_cell_angle_gamma   83.630000

loop_
_atom_site_label
_atom_site_fract_x
_atom_site_fract_y
_atom_site_fract_z
SI1  2.600924449163E-01 -3.333106933985E-01  3.155278690755E-01
SI2 -2.600924449163E-01  3.333106933985E-01 -3.155278690755E-01
C3  4.426386104720E-01 -8.161498398632E-02  7.612032259904E-02
C4 -4.426386104720E-01  8.161498398632E-02 -7.612032259904E-02
C5  3.151161928843E-01  3.382108593421E-02  4.342126730825E-02
C6 -3.151161928843E-01 -3.382108593421E-02 -4.342126730825E-02
C7  1.308442653919E-01  6.285281286305E-02  8.261084104741E-02
C8 -1.308442653919E-01 -6.285281286305E-02 -8.261084104741E-02
C9  4.457537215581E-03  1.739407702078E-01  5.032839189437E-02
C10 -4.457537215581E-03 -1.739407702078E-01 -5.032839189437E-02
C11 -1.838768858390E-01  1.990086641444E-01  8.828305157783E-02
C12  1.838768858390E-01 -1.990086641444E-01 -8.828305157783E-02
C13 -3.057632245889E-01  3.073579648055E-01  5.451175990537E-02
C14  3.057632245889E-01 -3.073579648055E-01 -5.451175990537E-02
C15 -2.455316506573E-01  3.988881067135E-01 -1.839591195823E-02
C16  2.455316506573E-01 -3.988881067135E-01  1.839591195823E-02
C17 -6.589535343856E-02  3.769219302135E-01 -5.733097669954E-02
C18  6.589535343856E-02 -3.769219302135E-01  5.733097669954E-02
C19  6.415135895719E-02  2.618668125545E-01 -2.563960276745E-02
C20 -6.415135895719E-02 -2.618668125545E-01  2.563960276745E-02
C21  2.461003660144E-01  2.308720960519E-01 -6.550646595202E-02
C22 -2.461003660144E-01 -2.308720960519E-01  6.550646595202E-02
C23  3.735675814458E-01  1.179544474073E-01 -3.352651553629E-02
C24 -3.735675814458E-01 -1.179544474073E-01  3.352651553629E-02
C25  3.866239715790E-01 -1.620939778580E-01  1.513572272352E-01
C26 -3.866239715790E-01  1.620939778580E-01 -1.513572272352E-01
C27  3.388526900100E-01 -2.331634661891E-01  2.174078779789E-01
C28 -3.388526900100E-01  2.331634661891E-01 -2.174078779789E-01
C29  3.294185625518E-01  4.219085519007E-01  2.997659128119E-01
C30 -3.294185625518E-01 -4.219085519007E-01 -2.997659128119E-01
C31  2.490373949568E-01  3.572712473731E-01  2.297806897905E-01
C32 -2.490373949568E-01 -3.572712473731E-01 -2.297806897905E-01
C33 -4.623505867964E-01  3.815606670277E-01  2.819588030994E-01
C34  4.623505867964E-01 -3.815606670277E-01 -2.819588030994E-01
C35  3.877324837509E-01 -2.350936983748E-01  3.882046187093E-01
C36 -3.877324837509E-01  2.350936983748E-01 -3.882046187093E-01
C37  3.402215488359E-01 -2.963046965348E-01  4.763188999489E-01
C38 -3.402215488359E-01  2.963046965348E-01 -4.763188999489E-01
C39  3.761735075780E-01 -3.607094240590E-02  3.825487070411E-01
C40 -3.761735075780E-01  3.607094240590E-02 -3.825487070411E-01
C41  1.394102995858E-03 -2.807878313797E-01  3.373242337765E-01
C42 -1.394102995858E-03  2.807878313797E-01 -3.373242337765E-01
C43 -9.387916257973E-02 -3.685862019027E-01  4.140315792443E-01
C44  9.387916257973E-02  3.685862019027E-01 -4.140315792443E-01
C45 -6.011641340588E-02 -8.469116072415E-02  3.371317313023E-01
C46  6.011641340588E-02  8.469116072415E-02 -3.371317313023E-01
H47  8.640154912501E-02 -1.165737038109E-02  1.375858224266E-01
H48 -8.640154912501E-02  1.165737038109E-02 -1.375858224266E-01
H49 -2.301971424748E-01  1.231540953057E-01  1.425429999598E-01
H50  2.301971424748E-01 -1.231540953057E-01 -1.425429999598E-01
H51 -4.510724100570E-01  3.172668815038E-01  8.159344741900E-02
H52  4.510724100570E-01 -3.172668815038E-01 -8.159344741900E-02
H53 -3.434808175444E-01  4.881721203449E-01 -4.297361520925E-02
H54  3.434808175444E-01 -4.881721203449E-01  4.297361520925E-02
H55 -1.843093379930E-02  4.513951960668E-01 -1.119874127198E-01
H56  1.843093379930E-02 -4.513951960668E-01  1.119874127198E-01
H57  2.939540419026E-01  2.951698758639E-01 -1.231723972280E-01
H58 -2.939540419026E-01 -2.951698758639E-01  1.231723972280E-01
H59  2.731614387135E-01  3.548133730254E-01  3.564509006012E-01
H60 -2.731614387135E-01 -3.548133730254E-01 -3.564509006012E-01
H61  2.834221956045E-01  4.393677485691E-01  1.756267455673E-01
H62 -2.834221956045E-01 -4.393677485691E-01 -1.756267455673E-01
H63  9.926062062936E-02  3.625056159540E-01  2.450140065167E-01
H64 -9.926062062936E-02 -3.625056159540E-01 -2.450140065167E-01
H65  3.023981183202E-01  2.213482467056E-01  2.116579023277E-01
H66 -3.023981183202E-01 -2.213482467056E-01 -2.116579023277E-01
H67 -4.217991984145E-01  2.405823242936E-01  2.715382650615E-01
H68  4.217991984145E-01 -2.405823242936E-01 -2.715382650615E-01
H69 -4.007038287065E-01  4.205987367781E-01  3.322767365606E-01
H70  4.007038287065E-01 -4.205987367781E-01 -3.322767365606E-01
H71 -3.994342041028E-01  4.481466921762E-01  2.264651466616E-01
H72  3.994342041028E-01 -4.481466921762E-01 -2.264651466616E-01
H73 -4.692338228631E-01 -2.866324263505E-01  3.626626245545E-01
H74  4.692338228631E-01  2.866324263505E-01 -3.626626245545E-01
H75  4.325033971084E-01 -2.507461450919E-01 -4.868533187145E-01
H76 -4.325033971084E-01  2.507461450919E-01  4.868533187145E-01
H77  3.491554077668E-01 -4.392614691249E-01  4.810406773940E-01
H78 -3.491554077668E-01  4.392614691249E-01 -4.810406773940E-01
H79  2.007357193723E-01 -2.440024896510E-01 -4.941318242655E-01
H80 -2.007357193723E-01  2.440024896510E-01  4.941318242655E-01
H81  2.392050786761E-01  2.592918427618E-02  4.102956186884E-01
H82 -2.392050786761E-01 -2.592918427618E-02 -4.102956186884E-01
H83  4.065735866124E-01  6.178233884557E-03  3.186597204166E-01
H84 -4.065735866124E-01 -6.178233884557E-03 -3.186597204166E-01
H85  4.730737916730E-01  1.615741047326E-02  4.148897435205E-01
H86 -4.730737916730E-01 -1.615741047326E-02 -4.148897435205E-01
H87 -3.646129023231E-02 -3.391145095726E-01  2.839478707179E-01
H88  3.646129023231E-02  3.391145095726E-01 -2.839478707179E-01
H89 -5.507542547294E-02  4.895394127169E-01  4.135126142833E-01
H90  5.507542547294E-02 -4.895394127169E-01 -4.135126142833E-01
H91 -2.434933920909E-01 -3.472181085061E-01  4.208218907457E-01
H92  2.434933920909E-01  3.472181085061E-01 -4.208218907457E-01
H93 -6.138045006754E-02 -3.158097562942E-01  4.695039977125E-01
H94  6.138045006754E-02  3.158097562942E-01 -4.695039977125E-01
H95  1.510794919429E-02 -1.993550360377E-02  2.838923922745E-01
H96 -1.510794919429E-02  1.993550360377E-02 -2.838923922745E-01
H97 -3.871564203027E-02 -1.973802848984E-02  3.920186132516E-01
H98  3.871564203027E-02  1.973802848984E-02 -3.920186132516E-01
H99 -2.069350514019E-01 -5.951026821113E-02  3.364534959280E-01
H100  2.069350514019E-01  5.951026821113E-02 -3.364534959280E-01


#===END

data_OPT_STEP_2

_symmetry_space_group_name_H-M 'P 1'
_cell_length_a      7.56500000
_cell_length_b      7.75000000
_cell_length_c     16.83500000
_cell_angle_alpha   89.150000
_cell_angle_beta   78.420000
_cell_angle_gamma   83.630000

loop_
_atom_site_label
_atom_site_fract_x
_atom_site_fract_y
_atom_site_fract_z
SI1  2.600924449163E-01 -3.333106933985E-01  3.155278690755E-01
SI2 -2.600924449163E-01  3.333106933985E-01 -3.155278690755E-01
C3  4.426386104720E-01 -8.161498398632E-02  7.612032259904E-02
C4 -4.426386104720E-01  8.161498398632E-02 -7.612032259904E-02
C5  3.151161928843E-01  3.382108593421E-02  4.342126730825E-02
C6 -3.151161928843E-01 -3.382108593421E-02 -4.342126730825E-02
C7  1.308442653919E-01  6.285281286305E-02  8.261084104741E-02
C8 -1.308442653919E-01 -6.285281286305E-02 -8.261084104741E-02
C9  4.457537215581E-03  1.739407702078E-01  5.032839189437E-02
C10 -4.457537215581E-03 -1.739407702078E-01 -5.032839189437E-02
C11 -1.838768858390E-01  1.990086641444E-01  8.828305157783E-02
C12  1.838768858390E-01 -1.990086641444E-01 -8.828305157783E-02
C13 -3.057632245889E-01  3.073579648055E-01  5.451175990537E-02
C14  3.057632245889E-01 -3.073579648055E-01 -5.451175990537E-02
C15 -2.455316506573E-01  3.988881067135E-01 -1.839591195823E-02
C16  2.455316506573E-01 -3.988881067135E-01  1.839591195823E-02
C17 -6.589535343856E-02  3.769219302135E-01 -5.733097669954E-02
C18  6.589535343856E-02 -3.769219302135E-01  5.733097669954E-02
C19  6.415135895719E-02  2.618668125545E-01 -2.563960276745E-02
C20 -6.415135895719E-02 -2.618668125545E-01  2.563960276745E-02
C21  2.461003660144E-01  2.308720960519E-01 -6.550646595202E-02
C22 -2.461003660144E-01 -2.308720960519E-01  6.550646595202E-02
C23  3.735675814458E-01  1.179544474073E-01 -3.352651553629E-02
C24 -3.735675814458E-01 -1.179544474073E-01  3.352651553629E-02
C25  3.866239715790E-01 -1.620939778580E-01  1.513572272352E-01
C26 -3.866239715790E-01  1.620939778580E-01 -1.513572272352E-01
C27  3.388526900100E-01 -2.331634661891E-01  2.174078779789E-01
C28 -3.388526900100E-01  2.331634661891E-01 -2.174078779789E-01
C29  3.294185625518E-01  4.219085519007E-01  2.997659128119E-01
C30 -3.294185625518E-01 -4.219085519007E-01 -2.997659128119E-01
C31  2.490373949568E-01  3.572712473731E-01  2.297806897905E-01
C32 -2.490373949568E-01 -3.572712473731E-01 -2.297806897905E-01
C33 -4.623505867964E-01  3.815606670277E-01  2.819588030994E-01
C34  4.623505867964E-01 -3.815606670277E-01 -2.819588030994E-01
C35  3.877324837509E-01 -2.350936983748E-01  3.882046187093E-01
C36 -3.877324837509E-01  2.350936983748E-01 -3.882046187093E-01
C37  3.402215488359E-01 -2.963046965348E-01  4.763188999489E-01
C38 -3.402215488359E-01  2.963046965348E-01 -4.763188999489E-01
C39  3.761735075780E-01 -3.607094240590E-02  3.825487070411E-01
C40 -3.761735075780E-01  3.607094240590E-02 -3.825487070411E-01
C41  1.394102995858E-03 -2.807878313797E-01  3.373242337765E-01
C42 -1.394102995858E-03  2.807878313797E-01 -3.373242337765E-01
C43 -9.387916257973E-02 -3.685862019027E-01  4.140315792443E-01
C44  9.387916257973E-02  3.685862019027E-01 -4.140315792443E-01
C45 -6.011641340588E-02 -8.469116072415E-02  3.371317313023E-01
C46  6.011641340588E-02  8.469116072415E-02 -3.371317313023E-01
H47  8.640154912501E-02 -1.165737038109E-02  1.375858224266E-01
H48 -8.640154912501E-02  1.165737038109E-02 -1.375858224266E-01
H49 -2.301971424748E-01  1.231540953057E-01  1.425429999598E-01
H50  2.301971424748E-01 -1.231540953057E-01 -1.425429999598E-01
H51 -4.510724100570E-01  3.172668815038E-01  8.159344741900E-02
H52  4.510724100570E-01 -3.172668815038E-01 -8.159344741900E-02
H53 -3.434808175444E-01  4.881721203449E-01 -4.297361520925E-02
H54  3.434808175444E-01 -4.881721203449E-01  4.297361520925E-02
H55 -1.843093379930E-02  4.513951960668E-01 -1.119874127198E-01
H56  1.843093379930E-02 -4.513951960668E-01  1.119874127198E-01
H57  2.939540419026E-01  2.951698758639E-01 -1.231723972280E-01
H58 -2.939540419026E-01 -2.951698758639E-01  1.231723972280E-01
H59  2.731614387135E-01  3.548133730254E-01  3.564509006012E-01
H60 -2.731614387135E-01 -3.548133730254E-01 -3.564509006012E-01
H61  2.834221956045E-01  4.393677485691E-01  1.756267455673E-01
H62 -2.834221956045E-01 -4.393677485691E-01 -1.756267455673E-01
H63  9.926062062936E-02  3.625056159540E-01  2.450140065167E-01
H64 -9.926062062936E-02 -3.625056159540E-01 -2.450140065167E-01
H65  3.023981183202E-01  2.213482467056E-01  2.116579023277E-01
H66 -3.023981183202E-01 -2.213482467056E-01 -2.116579023277E-01
H67 -4.217991984145E-01  2.405823242936E-01  2.715382650615E-01
H68  4.217991984145E-01 -2.405823242936E-01 -2.715382650615E-01
H69 -4.007038287065E-01  4.205987367781E-01  3.322767365606E-01
H70  4.007038287065E-01 -4.205987367781E-01 -3.322767365606E-01
H71 -3.994342041028E-01  4.481466921762E-01  2.264651466616E-01
H72  3.994342041028E-01 -4.481466921762E-01 -2.264651466616E-01
H73 -4.692338228631E-01 -2.866324263505E-01  3.626626245545E-01
H74  4.692338228631E-01  2.866324263505E-01 -3.626626245545E-01
H75  4.325033971084E-01 -2.507461450919E-01 -4.868533187145E-01
H76 -4.325033971084E-01  2.507461450919E-01  4.868533187145E-01
H77  3.491554077668E-01 -4.392614691249E-01  4.810406773940E-01
H78 -3.491554077668E-01  4.392614691249E-01 -4.810406773940E-01
H79  2.007357193723E-01 -2.440024896510E-01 -4.941318242655E-01
H80 -2.007357193723E-01  2.440024896510E-01  4.941318242655E-01
H81  2.392050786761E-01  2.592918427618E-02  4.102956186884E-01
H82 -2.392050786761E-01 -2.592918427618E-02 -4.102956186884E-01
H83  4.065735866124E-01  6.178233884557E-03  3.186597204166E-01
H84 -4.065735866124E-01 -6.178233884557E-03 -3.186597204166E-01
H85  4.730737916730E-01  1.615741047326E-02  4.148897435205E-01
H86 -4.730737916730E-01 -1.615741047326E-02 -4.148897435205E-01
H87 -3.646129023231E-02 -3.391145095726E-01  2.839478707179E-01
H88  3.646129023231E-02  3.391145095726E-01 -2.839478707179E-01
H89 -5.507542547294E-02  4.895394127169E-01  4.135126142833E-01
H90  5.507542547294E-02 -4.895394127169E-01 -4.135126142833E-01
H91 -2.434933920909E-01 -3.472181085061E-01  4.208218907457E-01
H92  2.434933920909E-01  3.472181085061E-01 -4.208218907457E-01
H93 -6.138045006754E-02 -3.158097562942E-01  4.695039977125E-01
H94  6.138045006754E-02  3.158097562942E-01 -4.695039977125E-01
H95  1.510794919429E-02 -1.993550360377E-02  2.838923922745E-01
H96 -1.510794919429E-02  1.993550360377E-02 -2.838923922745E-01
H97 -3.871564203027E-02 -1.973802848984E-02  3.920186132516E-01
H98  3.871564203027E-02  1.973802848984E-02 -3.920186132516E-01
H99 -2.069350514019E-01 -5.951026821113E-02  3.364534959280E-01
H100  2.069350514019E-01  5.951026821113E-02 -3.364534959280E-01


#===END

data_OPT_STEP_3

_symmetry_space_group_name_H-M 'P 1'
_cell_length_a      7.55239717
_cell_length_b      7.73761971
_cell_length_c     16.81516787
_cell_angle_alpha   89.144942
_cell_angle_beta   78.430325
_cell_angle_gamma   83.590808

loop_
_atom_site_label
_atom_site_fract_x
_atom_site_fract_y
_atom_site_fract_z
SI1  2.600596882444E-01 -3.323625469487E-01  3.157846706965E-01
SI2 -2.600596882444E-01  3.323625469487E-01 -3.157846706965E-01
C3  4.430804195881E-01 -8.049324796469E-02  7.638646154665E-02
C4 -4.430804195881E-01  8.049324796469E-02 -7.638646154665E-02
C5  3.155392772814E-01  3.467646740555E-02  4.365280926903E-02
C6 -3.155392772814E-01 -3.467646740555E-02 -4.365280926903E-02
C7  1.318343574620E-01  6.561352547218E-02  8.342769209901E-02
C8 -1.318343574620E-01 -6.561352547218E-02 -8.342769209901E-02
C9  5.079962737995E-03  1.750810643051E-01  5.070966342027E-02
C10 -5.079962737995E-03 -1.750810643051E-01 -5.070966342027E-02
C11 -1.827579011473E-01  2.021836714053E-01  8.938196848838E-02
C12  1.827579011473E-01 -2.021836714053E-01 -8.938196848838E-02
C13 -3.049856969257E-01  3.090026979373E-01  5.525279351111E-02
C14  3.049856969257E-01 -3.090026979373E-01 -5.525279351111E-02
C15 -2.459722676666E-01  3.963329513554E-01 -1.905099631934E-02
C16  2.459722676666E-01 -3.963329513554E-01  1.905099631934E-02
C17 -6.711263751843E-02  3.723963172943E-01 -5.864161093324E-02
C18  6.711263751843E-02 -3.723963172943E-01  5.864161093324E-02
C19  6.369215381946E-02  2.596955478119E-01 -2.620283855933E-02
C20 -6.369215381946E-02 -2.596955478119E-01  2.620283855933E-02
C21  2.453453645291E-01  2.285031064042E-01 -6.613639931885E-02
C22 -2.453453645291E-01 -2.285031064042E-01  6.613639931885E-02
C23  3.733232472957E-01  1.169870298022E-01 -3.377906817569E-02
C24 -3.733232472957E-01 -1.169870298022E-01  3.377906817569E-02
C25  3.869857387669E-01 -1.611513091836E-01  1.516124449369E-01
C26 -3.869857387669E-01  1.611513091836E-01 -1.516124449369E-01
C27  3.392252396688E-01 -2.321035174461E-01  2.174721901123E-01
C28 -3.392252396688E-01  2.321035174461E-01 -2.174721901123E-01
C29  3.294743202043E-01  4.226233866922E-01  3.003903640762E-01
C30 -3.294743202043E-01 -4.226233866922E-01 -3.003903640762E-01
C31  2.483606912303E-01  3.571036261912E-01  2.308572549996E-01
C32 -2.483606912303E-01 -3.571036261912E-01 -2.308572549996E-01
C33 -4.622557887804E-01  3.822562464884E-01  2.823086687288E-01
C34  4.622557887804E-01 -3.822562464884E-01 -2.823086687288E-01
C35  3.875228972902E-01 -2.340925844316E-01  3.885321531821E-01
C36 -3.875228972902E-01  2.340925844316E-01 -3.885321531821E-01
C37  3.402681623666E-01 -2.959043762004E-01  4.765197887556E-01
C38 -3.402681623666E-01  2.959043762004E-01 -4.765197887556E-01
C39  3.752909857114E-01 -3.497353925455E-02  3.832060589999E-01
C40 -3.752909857114E-01  3.497353925455E-02 -3.832060589999E-01
C41  1.210123498345E-03 -2.799776937923E-01  3.375083875367E-01
C42 -1.210123498345E-03  2.799776937923E-01 -3.375083875367E-01
C43 -9.375741306805E-02 -3.681110171559E-01  4.141369691419E-01
C44  9.375741306805E-02  3.681110171559E-01 -4.141369691419E-01
C45 -6.060441866513E-02 -8.387758999846E-02  3.375125482642E-01
C46  6.060441866513E-02  8.387758999846E-02 -3.375125482642E-01
H47  8.817113827116E-02 -5.488447626157E-03  1.395584557598E-01
H48 -8.817113827116E-02  5.488447626157E-03 -1.395584557598E-01
H49 -2.282541397691E-01  1.298647751402E-01  1.449022827444E-01
H50  2.282541397691E-01 -1.298647751402E-01 -1.449022827444E-01
H51 -4.497930444741E-01  3.215835262625E-01  8.345211600027E-02
H52  4.497930444741E-01 -3.215835262625E-01 -8.345211600027E-02
H53 -3.442545132949E-01  4.842897328318E-01 -4.413498700339E-02
H54  3.442545132949E-01 -4.842897328318E-01  4.413498700339E-02
H55 -2.063443243848E-02  4.436836862805E-01 -1.144354006936E-01
H56  2.063443243848E-02 -4.436836862805E-01  1.144354006936E-01
H57  2.924982128267E-01  2.916143812028E-01 -1.241589334332E-01
H58 -2.924982128267E-01 -2.916143812028E-01  1.241589334332E-01
H59  2.737218619472E-01  3.560282259933E-01  3.572743599142E-01
H60 -2.737218619472E-01 -3.560282259933E-01 -3.572743599142E-01
H61  2.828737331833E-01  4.380545865704E-01  1.763368251435E-01
H62 -2.828737331833E-01 -4.380545865704E-01 -1.763368251435E-01
H63  9.852191474411E-02  3.630449743754E-01  2.463249363918E-01
H64 -9.852191474411E-02 -3.630449743754E-01 -2.463249363918E-01
H65  3.011799131337E-01  2.207209351373E-01  2.133584470074E-01
H66 -3.011799131337E-01 -2.207209351373E-01 -2.133584470074E-01
H67 -4.217408609100E-01  2.412234785372E-01  2.719566907315E-01
H68  4.217408609100E-01 -2.412234785372E-01 -2.719566907315E-01
H69 -4.002974669307E-01  4.214714521877E-01  3.324797682349E-01
H70  4.002974669307E-01 -4.214714521877E-01 -3.324797682349E-01
H71 -3.998309978883E-01  4.487569390436E-01  2.267280604406E-01
H72  3.998309978883E-01 -4.487569390436E-01 -2.267280604406E-01
H73 -4.693360614819E-01 -2.852624532083E-01  3.629089328632E-01
H74  4.693360614819E-01  2.852624532083E-01 -3.629089328632E-01
H75  4.327935033044E-01 -2.507698998278E-01 -4.866791631166E-01
H76 -4.327935033044E-01  2.507698998278E-01  4.866791631166E-01
H77  3.491450941408E-01 -4.389210379039E-01  4.810034689252E-01
H78 -3.491450941408E-01  4.389210379039E-01 -4.810034689252E-01
H79  2.008294560473E-01 -2.435225053929E-01 -4.938444256656E-01
H80 -2.008294560473E-01  2.435225053929E-01  4.938444256656E-01
H81  2.381536998634E-01  2.656357943239E-02  4.110737230595E-01
H82 -2.381536998634E-01 -2.656357943239E-02 -4.110737230595E-01
H83  4.054756339881E-01  7.829037070852E-03  3.194287416322E-01
H84 -4.054756339881E-01 -7.829037070852E-03 -3.194287416322E-01
H85  4.721310009505E-01  1.707269374691E-02  4.156243212442E-01
H86 -4.721310009505E-01 -1.707269374691E-02 -4.156243212442E-01
H87 -3.662838030496E-02 -3.381603912941E-01  2.841065609236E-01
H88  3.662838030496E-02  3.381603912941E-01 -2.841065609236E-01
H89 -5.484406520499E-02  4.899768623229E-01  4.133921655638E-01
H90  5.484406520499E-02 -4.899768623229E-01 -4.133921655638E-01
H91 -2.433910597882E-01 -3.465972624043E-01  4.209959764813E-01
H92  2.433910597882E-01  3.465972624043E-01 -4.209959764813E-01
H93 -6.100291324048E-02 -3.156376430782E-01  4.695976217721E-01
H94  6.100291324048E-02  3.156376430782E-01 -4.695976217721E-01
H95  1.476562015839E-02 -1.879314684936E-02  2.844543775572E-01
H96 -1.476562015839E-02  1.879314684936E-02 -2.844543775572E-01
H97 -3.959902693036E-02 -1.929990887171E-02  3.925488013597E-01
H98  3.959902693036E-02  1.929990887171E-02 -3.925488013597E-01
H99 -2.073982340325E-01 -5.886622792727E-02  3.366740718215E-01
H100  2.073982340325E-01  5.886622792727E-02 -3.366740718215E-01


#===END

data_OPT_STEP_4

_symmetry_space_group_name_H-M 'P 1'
_cell_length_a      7.50808663
_cell_length_b      7.71357863
_cell_length_c     16.72858195
_cell_angle_alpha   89.278304
_cell_angle_beta   78.533522
_cell_angle_gamma   83.428376

loop_
_atom_site_label
_atom_site_fract_x
_atom_site_fract_y
_atom_site_fract_z
SI1  2.597406249287E-01 -3.311027181672E-01  3.156613170149E-01
SI2 -2.597406249287E-01  3.311027181672E-01 -3.156613170149E-01
C3  4.431803138171E-01 -8.159771130789E-02  7.572386250175E-02
C4 -4.431803138171E-01  8.159771130789E-02 -7.572386250175E-02
C5  3.157629775299E-01  3.321630606418E-02  4.318519346204E-02
C6 -3.157629775299E-01 -3.321630606418E-02 -4.318519346204E-02
C7  1.314468095367E-01  6.181669282994E-02  8.199441249533E-02
C8 -1.314468095367E-01 -6.181669282994E-02 -8.199441249533E-02
C9  6.514776459056E-03  1.756125095213E-01  5.092527036027E-02
C10 -6.514776459056E-03 -1.756125095213E-01 -5.092527036027E-02
C11 -1.823425290115E-01  1.992927251941E-01  8.822864877781E-02
C12  1.823425290115E-01 -1.992927251941E-01 -8.822864877781E-02
C13 -3.031911981542E-01  3.085125898172E-01  5.520521728556E-02
C14  3.031911981542E-01 -3.085125898172E-01 -5.520521728556E-02
C15 -2.424281743279E-01  4.037404780650E-01 -1.622756781392E-02
C16  2.424281743279E-01 -4.037404780650E-01  1.622756781392E-02
C17 -6.332689694867E-02  3.845816596637E-01 -5.405671986252E-02
C18  6.332689694867E-02 -3.845816596637E-01  5.405671986252E-02
C19  6.672332728645E-02  2.672389783864E-01 -2.332152228308E-02
C20 -6.672332728645E-02 -2.672389783864E-01  2.332152228308E-02
C21  2.469605779962E-01  2.344478688347E-01 -6.377690091159E-02
C22 -2.469605779962E-01 -2.344478688347E-01  6.377690091159E-02
C23  3.741781931963E-01  1.188826274945E-01 -3.293041849394E-02
C24 -3.741781931963E-01 -1.188826274945E-01  3.293041849394E-02
C25  3.872288394559E-01 -1.617043050624E-01  1.512080829873E-01
C26 -3.872288394559E-01  1.617043050624E-01 -1.512080829873E-01
C27  3.398697837612E-01 -2.313201815444E-01  2.164880069877E-01
C28 -3.398697837612E-01  2.313201815444E-01 -2.164880069877E-01
C29  3.291275728339E-01  4.237431216948E-01  3.013322732568E-01
C30 -3.291275728339E-01 -4.237431216948E-01 -3.013322732568E-01
C31  2.476217317694E-01  3.561793880116E-01  2.324185192233E-01
C32 -2.476217317694E-01 -3.561793880116E-01 -2.324185192233E-01
C33 -4.626441150449E-01  3.829762713053E-01  2.834444585667E-01
C34  4.626441150449E-01 -3.829762713053E-01 -2.834444585667E-01
C35  3.872707769688E-01 -2.330843042118E-01  3.886539219746E-01
C36 -3.872707769688E-01  2.330843042118E-01 -3.886539219746E-01
C37  3.402131167653E-01 -2.955044215103E-01  4.763527807993E-01
C38 -3.402131167653E-01  2.955044215103E-01 -4.763527807993E-01
C39  3.742888010590E-01 -3.436133785950E-02  3.841244977651E-01
C40 -3.742888010590E-01  3.436133785950E-02 -3.841244977651E-01
C41  3.785431325272E-04 -2.789973873404E-01  3.374075929820E-01
C42 -3.785431325273E-04  2.789973873404E-01 -3.374075929820E-01
C43 -9.309098288849E-02 -3.675515103558E-01  4.138938683949E-01
C44  9.309098288849E-02  3.675515103558E-01 -4.138938683949E-01
C45 -6.230340562318E-02 -8.340659725825E-02  3.380954734179E-01
C46  6.230340562318E-02  8.340659725825E-02 -3.380954734179E-01
H47  8.614231649791E-02 -1.237799565130E-02  1.364949971878E-01
H48 -8.614231649791E-02  1.237799565130E-02 -1.364949971878E-01
H49 -2.290054500177E-01  1.229617459504E-01  1.418196110168E-01
H50  2.290054500177E-01 -1.229617459504E-01 -1.418196110168E-01
H51 -4.483674090175E-01  3.177809787405E-01  8.190420457764E-02
H52  4.483674090175E-01 -3.177809787405E-01 -8.190420457764E-02
H53 -3.416398681913E-01  4.894708734705E-01 -4.177811992332E-02
H54  3.416398681913E-01 -4.894708734705E-01  4.177811992332E-02
H55 -1.701492814613E-02  4.572173396418E-01 -1.089911995519E-01
H56  1.701492814613E-02 -4.572173396418E-01  1.089911995519E-01
H57  2.927628168510E-01  2.979379740186E-01 -1.214982200822E-01
H58 -2.927628168510E-01 -2.979379740186E-01  1.214982200822E-01
H59  2.736084085803E-01  3.589811970902E-01  3.585040519984E-01
H60 -2.736084085803E-01 -3.589811970902E-01 -3.585040519984E-01
H61  2.826250293988E-01  4.342169101544E-01  1.772519557102E-01
H62 -2.826250293988E-01 -4.342169101544E-01 -1.772519557102E-01
H63  9.780444380951E-02  3.633423841459E-01  2.480443929664E-01
H64 -9.780444380951E-02 -3.633423841459E-01 -2.480443929664E-01
H65  3.001767323091E-01  2.193250636009E-01  2.163633198366E-01
H66 -3.001767323091E-01 -2.193250636009E-01 -2.163633198366E-01
H67 -4.223374108361E-01  2.422535504912E-01  2.730120370678E-01
H68  4.223374108361E-01 -2.422535504912E-01 -2.730120370678E-01
H69 -4.012806984158E-01  4.218604925054E-01  3.338279070721E-01
H70  4.012806984158E-01 -4.218604925054E-01 -3.338279070721E-01
H71 -4.004658627657E-01  4.494192153874E-01  2.281238428827E-01
H72  4.004658627657E-01 -4.494192153874E-01 -2.281238428827E-01
H73 -4.695433054112E-01 -2.838715674346E-01  3.629446972100E-01
H74  4.695433054112E-01  2.838715674346E-01 -3.629446972100E-01
H75  4.332566270632E-01 -2.515098323243E-01 -4.868789576549E-01
H76 -4.332566270632E-01  2.515098323243E-01  4.868789576549E-01
H77  3.485798665139E-01 -4.381604292571E-01  4.803880533537E-01
H78 -3.485798665139E-01  4.381604292571E-01 -4.803880533537E-01
H79  2.010538820203E-01 -2.423459069682E-01 -4.940375408240E-01
H80 -2.010538820203E-01  2.423459069682E-01  4.940375408240E-01
H81  2.370662436560E-01  2.663101705613E-02  4.121860030410E-01
H82 -2.370662436560E-01 -2.663101705613E-02 -4.121860030410E-01
H83  4.042848625826E-01  9.267054101050E-03  3.206828970991E-01
H84 -4.042848625826E-01 -9.267054101050E-03 -3.206828970991E-01
H85  4.712562094677E-01  1.641949165382E-02  4.167836990583E-01
H86 -4.712562094677E-01 -1.641949165382E-02 -4.167836990583E-01
H87 -3.785421154692E-02 -3.367609053381E-01  2.840237957123E-01
H88  3.785421154692E-02  3.367609053381E-01 -2.840237957123E-01
H89 -5.339325545143E-02  4.909590662478E-01  4.124934110140E-01
H90  5.339325545143E-02 -4.909590662478E-01 -4.124934110140E-01
H91 -2.426876020009E-01 -3.459684526453E-01  4.209855092940E-01
H92  2.426876020009E-01  3.459684526453E-01 -4.209855092940E-01
H93 -5.956358393268E-02 -3.155462354857E-01  4.692427224721E-01
H94  5.956358393268E-02  3.155462354857E-01 -4.692427224721E-01
H95  1.288363496680E-02 -1.792046970450E-02  2.854885270171E-01
H96 -1.288363496680E-02  1.792046970450E-02 -2.854885270171E-01
H97 -4.165386767761E-02 -2.001550369315E-02  3.934472703807E-01
H98  4.165386767761E-02  2.001550369315E-02 -3.934472703807E-01
H99 -2.090409060344E-01 -5.886160028584E-02  3.370830981580E-01
H100  2.090409060344E-01  5.886160028584E-02 -3.370830981580E-01


#===END

data_OPT_STEP_5

_symmetry_space_group_name_H-M 'P 1'
_cell_length_a      7.49014054
_cell_length_b      7.69470074
_cell_length_c     16.67114331
_cell_angle_alpha   89.462824
_cell_angle_beta   78.651339
_cell_angle_gamma   83.495167

loop_
_atom_site_label
_atom_site_fract_x
_atom_site_fract_y
_atom_site_fract_z
SI1  2.589265339170E-01 -3.284268026664E-01  3.164745381108E-01
SI2 -2.589265339170E-01  3.284268026664E-01 -3.164745381108E-01
C3  4.435587836238E-01 -7.985814630018E-02  7.613291625157E-02
C4 -4.435587836238E-01  7.985814630018E-02 -7.613291625157E-02
C5  3.152039077805E-01  3.120818096820E-02  4.245596419676E-02
C6 -3.152039077805E-01 -3.120818096820E-02 -4.245596419676E-02
C7  1.301864659285E-01  5.787327182243E-02  8.051390103577E-02
C8 -1.301864659285E-01 -5.787327182243E-02 -8.051390103577E-02
C9  5.021642845739E-03  1.697434797646E-01  4.894966168366E-02
C10 -5.021642845739E-03 -1.697434797646E-01 -4.894966168366E-02
C11 -1.830672050771E-01  1.973749864551E-01  8.754823154539E-02
C12  1.830672050771E-01 -1.973749864551E-01 -8.754823154539E-02
C13 -3.037399577511E-01  3.064985079264E-01  5.468970582927E-02
C14  3.037399577511E-01 -3.064985079264E-01 -5.468970582927E-02
C15 -2.445459053073E-01  3.956667648965E-01 -1.875964343315E-02
C16  2.445459053073E-01 -3.956667648965E-01  1.875964343315E-02
C17 -6.715086305921E-02  3.716250928704E-01 -5.812515072299E-02
C18  6.715086305921E-02 -3.716250928704E-01  5.812515072299E-02
C19  6.357504121988E-02  2.558203806631E-01 -2.686216783060E-02
C20 -6.357504121988E-02 -2.558203806631E-01  2.686216783060E-02
C21  2.439152722115E-01  2.244811763326E-01 -6.680096345609E-02
C22 -2.439152722115E-01 -2.244811763326E-01  6.680096345609E-02
C23  3.729413604268E-01  1.142330318777E-01 -3.436897732854E-02
C24 -3.729413604268E-01 -1.142330318777E-01  3.436897732854E-02
C25  3.873565050717E-01 -1.596244502011E-01  1.518688126818E-01
C26 -3.873565050717E-01  1.596244502011E-01 -1.518688126818E-01
C27  3.398308175485E-01 -2.288402996589E-01  2.170144064289E-01
C28 -3.398308175485E-01  2.288402996589E-01 -2.170144064289E-01
C29  3.280942809108E-01  4.260445969785E-01  3.026650421059E-01
C30 -3.280942809108E-01 -4.260445969785E-01 -3.026650421059E-01
C31  2.460255596186E-01  3.567480427421E-01  2.340236330833E-01
C32 -2.460255596186E-01 -3.567480427421E-01 -2.340236330833E-01
C33 -4.636645968698E-01  3.853183554238E-01  2.848883583456E-01
C34  4.636645968698E-01 -3.853183554238E-01 -2.848883583456E-01
C35  3.866129391985E-01 -2.303409323580E-01  3.898481852097E-01
C36 -3.866129391985E-01  2.303409323580E-01 -3.898481852097E-01
C37  3.403877615819E-01 -2.944402670169E-01  4.773170327206E-01
C38 -3.403877615819E-01  2.944402670169E-01 -4.773170327206E-01
C39  3.727943339509E-01 -3.139752660784E-02  3.863189589285E-01
C40 -3.727943339509E-01  3.139752660784E-02 -3.863189589285E-01
C41 -6.725286568585E-04 -2.766375801088E-01  3.380199142288E-01
C42  6.725286568584E-04  2.766375801088E-01 -3.380199142288E-01
C43 -9.362600011722E-02 -3.660064250793E-01  4.143345225664E-01
C44  9.362600011722E-02  3.660064250793E-01 -4.143345225664E-01
C45 -6.371044775633E-02 -8.101233235051E-02  3.392340217597E-01
C46  6.371044775633E-02  8.101233235051E-02 -3.392340217597E-01
H47  8.443045713359E-02 -1.661833931707E-02  1.346368886560E-01
H48 -8.443045713359E-02  1.661833931707E-02 -1.346368886560E-01
H49 -2.292943691363E-01  1.233229575209E-01  1.417469910119E-01
H50  2.292943691363E-01 -1.233229575209E-01 -1.417469910119E-01
H51 -4.479502714966E-01  3.201214483430E-01  8.293543978690E-02
H52  4.479502714966E-01 -3.201214483430E-01 -8.293543978690E-02
H53 -3.431091510084E-01  4.833196764895E-01 -4.355615750840E-02
H54  3.431091510084E-01 -4.833196764895E-01  4.355615750840E-02
H55 -2.126455331339E-02  4.426322231369E-01 -1.134325656238E-01
H56  2.126455331339E-02 -4.426322231369E-01  1.134325656238E-01
H57  2.887463580525E-01  2.870156327504E-01 -1.247293460094E-01
H58 -2.887463580525E-01 -2.870156327504E-01  1.247293460094E-01
H59  2.727770473976E-01  3.624289943131E-01  3.600806761411E-01
H60 -2.727770473976E-01 -3.624289943131E-01 -3.600806761411E-01
H61  2.805074207827E-01  4.334796017717E-01  1.785313225424E-01
H62 -2.805074207827E-01 -4.334796017717E-01 -1.785313225424E-01
H63  9.639802993659E-02  3.637441092579E-01  2.498752677263E-01
H64 -9.639802993659E-02 -3.637441092579E-01 -2.498752677263E-01
H65  2.987813536207E-01  2.197804943985E-01  2.184893418452E-01
H66 -2.987813536207E-01 -2.197804943985E-01 -2.184893418452E-01
H67 -4.235489933215E-01  2.446395619554E-01  2.744299944647E-01
H68  4.235489933215E-01 -2.446395619554E-01 -2.744299944647E-01
H69 -4.025450813408E-01  4.243645966740E-01  3.354367805166E-01
H70  4.025450813408E-01 -4.243645966740E-01 -3.354367805166E-01
H71 -4.015759828407E-01  4.516917324468E-01  2.296769399434E-01
H72  4.015759828407E-01 -4.516917324468E-01 -2.296769399434E-01
H73 -4.702905091186E-01 -2.802980942056E-01  3.638224854198E-01
H74  4.702905091186E-01  2.802980942056E-01 -3.638224854198E-01
H75  4.336638121174E-01 -2.511016028460E-01 -4.857435053473E-01
H76 -4.336638121174E-01  2.511016028460E-01  4.857435053473E-01
H77  3.489703226997E-01 -4.371215216713E-01  4.805421398131E-01
H78 -3.489703226997E-01  4.371215216713E-01 -4.805421398131E-01
H79  2.014590461399E-01 -2.417805119957E-01 -4.928242929737E-01
H80 -2.014590461399E-01  2.417805119957E-01  4.928242929737E-01
H81  2.356119087500E-01  2.874526460250E-02  4.146580494969E-01
H82 -2.356119087500E-01 -2.874526460250E-02 -4.146580494969E-01
H83  4.023968016258E-01  1.341561319572E-02  3.231310412627E-01
H84 -4.023968016258E-01 -1.341561319572E-02 -3.231310412627E-01
H85  4.697486329578E-01  1.888671727670E-02  4.192676996976E-01
H86 -4.697486329578E-01 -1.888671727670E-02 -4.192676996976E-01
H87 -3.893737397581E-02 -3.341928886347E-01  2.844536388069E-01
H88  3.893737397581E-02  3.341928886347E-01 -2.844536388069E-01
H89 -5.397496497724E-02  4.925761525966E-01  4.123252166236E-01
H90  5.397496497724E-02 -4.925761525966E-01 -4.123252166236E-01
H91 -2.431077521973E-01 -3.442891324329E-01  4.215989154716E-01
H92  2.431077521973E-01  3.442891324329E-01 -4.215989154716E-01
H93 -5.947681412140E-02 -3.146708912091E-01  4.698089265904E-01
H94  5.947681412140E-02  3.146708912091E-01 -4.698089265904E-01
H95  1.106310252394E-02 -1.506132437683E-02  2.868450363761E-01
H96 -1.106310252394E-02  1.506132437683E-02 -2.868450363761E-01
H97 -4.290142441481E-02 -1.811426577931E-02  3.948052272436E-01
H98  4.290142441481E-02  1.811426577931E-02 -3.948052272436E-01
H99 -2.103575536261E-01 -5.682368014571E-02  3.382388103390E-01
H100  2.103575536261E-01  5.682368014571E-02 -3.382388103390E-01


#===END

data_OPT_STEP_6

_symmetry_space_group_name_H-M 'P 1'
_cell_length_a      7.48029840
_cell_length_b      7.68364756
_cell_length_c     16.64524602
_cell_angle_alpha   89.528995
_cell_angle_beta   78.697888
_cell_angle_gamma   83.539505

loop_
_atom_site_label
_atom_site_fract_x
_atom_site_fract_y
_atom_site_fract_z
SI1  2.586164935609E-01 -3.265751964408E-01  3.171885256515E-01
SI2 -2.586164935609E-01  3.265751964408E-01 -3.171885256515E-01
C3  4.442160600548E-01 -7.779366693986E-02  7.672862270879E-02
C4 -4.442160600548E-01  7.779366693986E-02 -7.672862270879E-02
C5  3.171177180120E-01  3.690943163436E-02  4.410937034393E-02
C6 -3.171177180120E-01 -3.690943163436E-02 -4.410937034393E-02
C7  1.336668237005E-01  7.017182588215E-02  8.411004783959E-02
C8 -1.336668237005E-01 -7.017182588215E-02 -8.411004783959E-02
C9  7.650514787947E-03  1.786572952022E-01  5.152251394567E-02
C10 -7.650514787947E-03 -1.786572952022E-01 -5.152251394567E-02
C11 -1.799165779870E-01  2.093572351365E-01  9.125268089759E-02
C12  1.799165779870E-01 -2.093572351365E-01 -9.125268089759E-02
C13 -3.020317143835E-01  3.127064275092E-01  5.668555036112E-02
C14  3.020317143835E-01 -3.127064275092E-01 -5.668555036112E-02
C15 -2.450537712655E-01  3.937191826124E-01 -1.959628533510E-02
C16  2.450537712655E-01 -3.937191826124E-01  1.959628533510E-02
C17 -6.841675698917E-02  3.675305063008E-01 -5.970531923295E-02
C18  6.841675698917E-02 -3.675305063008E-01  5.970531923295E-02
C19  6.397947782903E-02  2.568429418475E-01 -2.671700757745E-02
C20 -6.397947782903E-02 -2.568429418475E-01  2.671700757745E-02
C21  2.441144702391E-01  2.251175227839E-01 -6.671175315843E-02
C22 -2.441144702391E-01 -2.251175227839E-01  6.671175315843E-02
C23  3.735753896177E-01  1.156798266444E-01 -3.399948935957E-02
C24 -3.735753896177E-01 -1.156798266444E-01  3.399948935957E-02
C25  3.878930993783E-01 -1.576414879113E-01  1.525931752664E-01
C26 -3.878930993783E-01  1.576414879113E-01 -1.525931752664E-01
C27  3.401558939349E-01 -2.269625282566E-01  2.176803827020E-01
C28 -3.401558939349E-01  2.269625282566E-01 -2.176803827020E-01
C29  3.278582818310E-01  4.275899168644E-01  3.038481081672E-01
C30 -3.278582818310E-01 -4.275899168644E-01 -3.038481081672E-01
C31  2.445284283996E-01  3.566394129928E-01  2.357971556433E-01
C32 -2.445284283996E-01 -3.566394129928E-01 -2.357971556433E-01
C33 -4.637474126352E-01  3.870698303700E-01  2.857089324630E-01
C34  4.637474126352E-01 -3.870698303700E-01 -2.857089324630E-01
C35  3.862258200780E-01 -2.282910564275E-01  3.907629560699E-01
C36 -3.862258200780E-01  2.282910564275E-01 -3.907629560699E-01
C37  3.406120046128E-01 -2.938060843805E-01  4.780569931852E-01
C38 -3.406120046128E-01  2.938060843805E-01 -4.780569931852E-01
C39  3.715694397576E-01 -2.910209003628E-02  3.879193888249E-01
C40 -3.715694397576E-01  2.910209003628E-02 -3.879193888249E-01
C41 -1.224853270088E-03 -2.750789701389E-01  3.384416990762E-01
C42  1.224853270088E-03  2.750789701389E-01 -3.384416990762E-01
C43 -9.403802781498E-02 -3.650274759639E-01  4.146580556732E-01
C44  9.403802781498E-02  3.650274759639E-01 -4.146580556732E-01
C45 -6.463911555871E-02 -7.937421187662E-02  3.398476119400E-01
C46  6.463911555871E-02  7.937421187662E-02 -3.398476119400E-01
H47  8.869831652744E-02  7.009908780183E-04  1.398389500640E-01
H48 -8.869831652744E-02 -7.009908780183E-04 -1.398389500640E-01
H49 -2.247476775432E-01  1.402750102366E-01  1.472026331347E-01
H50  2.247476775432E-01 -1.402750102366E-01 -1.472026331347E-01
H51 -4.457551628616E-01  3.269786656761E-01  8.550233718987E-02
H52  4.457551628616E-01 -3.269786656761E-01 -8.550233718987E-02
H53 -3.441114603799E-01  4.790299263817E-01 -4.513901988148E-02
H54  3.441114603799E-01 -4.790299263817E-01  4.513901988148E-02
H55 -2.338781714900E-02  4.357526666260E-01 -1.159337707973E-01
H56  2.338781714900E-02 -4.357526666260E-01  1.159337707973E-01
H57  2.882537300549E-01  2.867204572394E-01 -1.248856677566E-01
H58 -2.882537300549E-01 -2.867204572394E-01  1.248856677566E-01
H59  2.732712244111E-01  3.649371369143E-01  3.615982261095E-01
H60 -2.732712244111E-01 -3.649371369143E-01 -3.615982261095E-01
H61  2.785270996830E-01  4.318573136630E-01  1.798334702851E-01
H62 -2.785270996830E-01 -4.318573136630E-01 -1.798334702851E-01
H63  9.499851093162E-02  3.639589926860E-01  2.520717384450E-01
H64 -9.499851093162E-02 -3.639589926860E-01 -2.520717384450E-01
H65  2.968784674561E-01  2.193652170431E-01  2.209125135577E-01
H66 -2.968784674561E-01 -2.193652170431E-01 -2.209125135577E-01
H67 -4.236759121725E-01  2.464054043369E-01  2.753611955229E-01
H68  4.236759121725E-01 -2.464054043369E-01 -2.753611955229E-01
H69 -4.022247400229E-01  4.265246159807E-01  3.360798629020E-01
H70  4.022247400229E-01 -4.265246159807E-01 -3.360798629020E-01
H71 -4.022608426488E-01  4.532448610246E-01  2.303950140390E-01
H72  4.022608426488E-01 -4.532448610246E-01 -2.303950140390E-01
H73 -4.706722483748E-01 -2.774889063929E-01  3.645084016229E-01
H74  4.706722483748E-01  2.774889063929E-01 -3.645084016229E-01
H75  4.340173606425E-01 -2.509783587673E-01 -4.849135002371E-01
H76 -4.340173606425E-01  2.509783587673E-01  4.849135002371E-01
H77  3.494145228894E-01 -4.365122094350E-01  4.807106394323E-01
H78 -3.494145228894E-01  4.365122094350E-01 -4.807106394323E-01
H79  2.018117771823E-01 -2.416292778292E-01 -4.918852932377E-01
H80 -2.018117771823E-01  2.416292778292E-01  4.918852932377E-01
H81  2.343340920691E-01  3.027343615469E-02  4.164417667739E-01
H82 -2.343340920691E-01 -3.027343615469E-02 -4.164417667739E-01
H83  4.008916768218E-01  1.669161346858E-02  3.249324511228E-01
H84 -4.008916768218E-01 -1.669161346858E-02 -3.249324511228E-01
H85  4.684028622182E-01  2.094836789057E-02  4.210378990769E-01
H86 -4.684028622182E-01 -2.094836789057E-02 -4.210378990769E-01
H87 -3.927922615722E-02 -3.326196758625E-01  2.847873789590E-01
H88  3.927922615722E-02  3.326196758625E-01 -2.847873789590E-01
H89 -5.459727702879E-02  4.935718466324E-01  4.122824314609E-01
H90  5.459727702879E-02 -4.935718466324E-01 -4.122824314609E-01
H91 -2.434493150751E-01 -3.430706105047E-01  4.220533133901E-01
H92  2.434493150751E-01  3.430706105047E-01 -4.220533133901E-01
H93 -5.944096182306E-02 -3.142630837619E-01  4.701774119119E-01
H94  5.944096182306E-02  3.142630837619E-01 -4.701774119119E-01
H95  9.858105037805E-03 -1.309480009476E-02  2.875780654052E-01
H96 -9.858105037805E-03  1.309480009476E-02 -2.875780654052E-01
H97 -4.386717253579E-02 -1.667031435858E-02  3.954971530637E-01
H98  4.386717253579E-02  1.667031435858E-02 -3.954971530637E-01
H99 -2.112207020250E-01 -5.552791320911E-02  3.388445411329E-01
H100  2.112207020250E-01  5.552791320911E-02 -3.388445411329E-01


#===END

data_OPT_STEP_7

_symmetry_space_group_name_H-M 'P 1'
_cell_length_a      7.46862808
_cell_length_b      7.64917034
_cell_length_c     16.60197774
_cell_angle_alpha   89.774511
_cell_angle_beta   78.835179
_cell_angle_gamma   83.797020

loop_
_atom_site_label
_atom_site_fract_x
_atom_site_fract_y
_atom_site_fract_z
SI1  2.580793258415E-01 -3.245726360680E-01  3.182133002446E-01
SI2 -2.580793258415E-01  3.245726360680E-01 -3.182133002446E-01
C3  4.446658798513E-01 -7.671253475247E-02  7.719211812469E-02
C4 -4.446658798513E-01  7.671253475247E-02 -7.719211812469E-02
C5  3.168982881036E-01  3.625510741518E-02  4.402313744934E-02
C6 -3.168982881036E-01 -3.625510741518E-02 -4.402313744934E-02
C7  1.347394730689E-01  7.473054326553E-02  8.577128650854E-02
C8 -1.347394730689E-01 -7.473054326553E-02 -8.577128650854E-02
C9  7.344865207022E-03  1.787580127608E-01  5.173075649569E-02
C10 -7.344865207022E-03 -1.787580127608E-01 -5.173075649569E-02
C11 -1.799863282138E-01  2.111960326241E-01  9.218425397512E-02
C12  1.799863282138E-01 -2.111960326241E-01 -9.218425397512E-02
C13 -3.026504671969E-01  3.132866381875E-01  5.719710836885E-02
C14  3.026504671969E-01 -3.132866381875E-01 -5.719710836885E-02
C15 -2.463248185415E-01  3.921359457761E-01 -2.005086002714E-02
C16  2.463248185415E-01 -3.921359457761E-01  2.005086002714E-02
C17 -7.035459035782E-02  3.631819748767E-01 -6.121195616302E-02
C18  7.035459035782E-02 -3.631819748767E-01  6.121195616302E-02
C19  6.348909090229E-02  2.566345285437E-01 -2.680189665202E-02
C20 -6.348909090229E-02 -2.566345285437E-01  2.680189665202E-02
C21  2.427942762416E-01  2.220992391756E-01 -6.777305638304E-02
C22 -2.427942762416E-01 -2.220992391756E-01  6.777305638304E-02
C23  3.728415875935E-01  1.138301936923E-01 -3.462618691841E-02
C24 -3.728415875935E-01 -1.138301936923E-01  3.462618691841E-02
C25  3.883821853838E-01 -1.562706976726E-01  1.532912382301E-01
C26 -3.883821853838E-01  1.562706976726E-01 -1.532912382301E-01
C27  3.402904401902E-01 -2.255558586599E-01  2.186009211312E-01
C28 -3.402904401902E-01  2.255558586599E-01 -2.186009211312E-01
C29  3.270530947435E-01  4.284812390625E-01  3.055478162433E-01
C30 -3.270530947435E-01 -4.284812390625E-01 -3.055478162433E-01
C31  2.418702254301E-01  3.545228213368E-01  2.381278570181E-01
C32 -2.418702254301E-01 -3.545228213368E-01 -2.381278570181E-01
C33 -4.642460626038E-01  3.883824461293E-01  2.869452443395E-01
C34  4.642460626038E-01 -3.883824461293E-01 -2.869452443395E-01
C35  3.858180973322E-01 -2.249921083150E-01  3.921243348740E-01
C36 -3.858180973322E-01  2.249921083150E-01 -3.921243348740E-01
C37  3.414440704838E-01 -2.925019105679E-01  4.792904738957E-01
C38 -3.414440704838E-01  2.925019105679E-01 -4.792904738957E-01
C39  3.697312426599E-01 -2.479035905820E-02  3.902844222949E-01
C40 -3.697312426599E-01  2.479035905820E-02 -3.902844222949E-01
C41 -1.882475695174E-03 -2.733119853340E-01  3.390213636134E-01
C42  1.882475695174E-03  2.733119853340E-01 -3.390213636134E-01
C43 -9.466164975464E-02 -3.640042400236E-01  4.151954783794E-01
C44  9.466164975464E-02  3.640042400236E-01 -4.151954783794E-01
C45 -6.533147512160E-02 -7.682866901704E-02  3.407830763904E-01
C46  6.533147512160E-02  7.682866901704E-02 -3.407830763904E-01
H47  9.266068707551E-02  1.679407420524E-02  1.457121224328E-01
H48 -9.266068707551E-02 -1.679407420524E-02 -1.457121224328E-01
H49 -2.228381767204E-01  1.503753946855E-01  1.512790348528E-01
H50  2.228381767204E-01 -1.503753946855E-01 -1.512790348528E-01
H51 -4.456588519760E-01  3.316359975744E-01  8.763045345901E-02
H52  4.456588519760E-01 -3.316359975744E-01 -8.763045345901E-02
H53 -3.456929857280E-01  4.754520791592E-01 -4.638196942459E-02
H54  3.456929857280E-01 -4.754520791592E-01  4.638196942459E-02
H55 -2.757415273067E-02  4.227074713418E-01 -1.207005860535E-01
H56  2.757415273067E-02 -4.227074713418E-01  1.207005860535E-01
H57  2.852448414921E-01  2.791084384092E-01 -1.274576551304E-01
H58 -2.852448414921E-01 -2.791084384092E-01  1.274576551304E-01
H59  2.732839304312E-01  3.671783163917E-01  3.638973857352E-01
H60 -2.732839304312E-01 -3.671783163917E-01 -3.638973857352E-01
H61  2.771262721773E-01  4.265734067943E-01  1.810922541307E-01
H62 -2.771262721773E-01 -4.265734067943E-01 -1.810922541307E-01
H63  9.210995727934E-02  3.639791212677E-01  2.546131781574E-01
H64 -9.210995727934E-02 -3.639791212677E-01 -2.546131781574E-01
H65  2.918363325579E-01  2.155584152484E-01  2.247120465383E-01
H66 -2.918363325579E-01 -2.155584152484E-01 -2.247120465383E-01
H67 -4.243282105095E-01  2.470860950843E-01  2.769295001331E-01
H68  4.243282105095E-01 -2.470860950843E-01 -2.769295001331E-01
H69 -4.018532236238E-01  4.294111294938E-01  3.371022436593E-01
H70  4.018532236238E-01 -4.294111294938E-01 -3.371022436593E-01
H71 -4.034428501446E-01  4.539952222956E-01  2.312361167938E-01
H72  4.034428501446E-01 -4.539952222956E-01 -2.312361167938E-01
H73 -4.710021034077E-01 -2.730700184534E-01  3.654735764937E-01
H74  4.710021034077E-01  2.730700184534E-01 -3.654735764937E-01
H75  4.354446234835E-01 -2.499151827138E-01 -4.835016847447E-01
H76 -4.354446234835E-01  2.499151827138E-01  4.835016847447E-01
H77  3.505093477316E-01 -4.358249132293E-01  4.810967736615E-01
H78 -3.505093477316E-01  4.358249132293E-01 -4.810967736615E-01
H79  2.027619929665E-01 -2.410958825354E-01 -4.901657008669E-01
H80 -2.027619929665E-01  2.410958825354E-01  4.901657008669E-01
H81  2.322998974716E-01  3.330641574974E-02  4.192758027880E-01
H82 -2.322998974716E-01 -3.330641574974E-02 -4.192758027880E-01
H83  3.981203616296E-01  2.239132064585E-02  3.274239257237E-01
H84 -3.981203616296E-01 -2.239132064585E-02 -3.274239257237E-01
H85  4.666856406269E-01  2.581220506347E-02  4.236315588319E-01
H86 -4.666856406269E-01 -2.581220506347E-02 -4.236315588319E-01
H87 -3.991792615637E-02 -3.312457932939E-01  2.850798470287E-01
H88  3.991792615637E-02  3.312457932939E-01 -2.850798470287E-01
H89 -5.621256402518E-02  4.939742291044E-01  4.122650307913E-01
H90  5.621256402518E-02 -4.939742291044E-01 -4.122650307913E-01
H91 -2.441089050339E-01 -3.413173671288E-01  4.227925637041E-01
H92  2.441089050339E-01  3.413173671288E-01 -4.227925637041E-01
H93 -5.889145125328E-02 -3.138217840269E-01  4.709232639854E-01
H94  5.889145125328E-02  3.138217840269E-01 -4.709232639854E-01
H95  9.432025588582E-03 -9.775137720333E-03  2.887374493752E-01
H96 -9.432025588582E-03  9.775137720333E-03 -2.887374493752E-01
H97 -4.495516356134E-02 -1.403259346951E-02  3.968502386662E-01
H98  4.495516356134E-02  1.403259346951E-02 -3.968502386662E-01
H99 -2.118942867737E-01 -5.341028296338E-02  3.394817295849E-01
H100  2.118942867737E-01  5.341028296338E-02 -3.394817295849E-01


#===END

data_OPT_STEP_8

_symmetry_space_group_name_H-M 'P 1'
_cell_length_a      7.45767757
_cell_length_b      7.60678066
_cell_length_c     16.54979533
_cell_angle_alpha   90.102046
_cell_angle_beta   78.988272
_cell_angle_gamma   84.110185

loop_
_atom_site_label
_atom_site_fract_x
_atom_site_fract_y
_atom_site_fract_z
SI1  2.575008857187E-01 -3.211792885663E-01  3.196747262002E-01
SI2 -2.575008857187E-01  3.211792885663E-01 -3.196747262002E-01
C3  4.457606300691E-01 -7.316881034508E-02  7.837494880192E-02
C4 -4.457606300691E-01  7.316881034508E-02 -7.837494880192E-02
C5  3.174060979705E-01  3.819929183766E-02  4.459441707486E-02
C6 -3.174060979705E-01 -3.819929183766E-02 -4.459441707486E-02
C7  1.348082980352E-01  7.474528348362E-02  8.588177940425E-02
C8 -1.348082980352E-01 -7.474528348362E-02 -8.588177940425E-02
C9  8.058443991893E-03  1.819940905260E-01  5.280981903283E-02
C10 -8.058443991893E-03 -1.819940905260E-01 -5.280981903283E-02
C11 -1.784803024068E-01  2.174535477728E-01  9.441286373811E-02
C12  1.784803024068E-01 -2.174535477728E-01 -9.441286373811E-02
C13 -3.015582170390E-01  3.194790081957E-01  5.943310012163E-02
C14  3.015582170390E-01 -3.194790081957E-01 -5.943310012163E-02
C15 -2.468261060980E-01  3.925865885615E-01 -1.986548590981E-02
C16  2.468261060980E-01 -3.925865885615E-01  1.986548590981E-02
C17 -7.084865614077E-02  3.631392079202E-01 -6.130086287940E-02
C18  7.084865614077E-02 -3.631392079202E-01  6.130086287940E-02
C19  6.301799620564E-02  2.562151873700E-01 -2.704387904417E-02
C20 -6.301799620564E-02 -2.562151873700E-01  2.704387904417E-02
C21  2.419753463621E-01  2.200610093245E-01 -6.863877275445E-02
C22 -2.419753463621E-01 -2.200610093245E-01  6.863877275445E-02
C23  3.724034209858E-01  1.128202692336E-01 -3.508623772288E-02
C24 -3.724034209858E-01 -1.128202692336E-01  3.508623772288E-02
C25  3.892234572957E-01 -1.526018676321E-01  1.546017121752E-01
C26 -3.892234572957E-01  1.526018676321E-01 -1.546017121752E-01
C27  3.405807267876E-01 -2.221564000599E-01  2.200604496937E-01
C28 -3.405807267876E-01  2.221564000599E-01 -2.200604496937E-01
C29  3.261975257540E-01  4.305288198048E-01  3.074072195097E-01
C30 -3.261975257540E-01 -4.305288198048E-01 -3.074072195097E-01
C31  2.391419504845E-01  3.535492840107E-01  2.405150455911E-01
C32 -2.391419504845E-01 -3.535492840107E-01 -2.405150455911E-01
C33 -4.648492735812E-01  3.909748762111E-01  2.882174862120E-01
C34  4.648492735812E-01 -3.909748762111E-01 -2.882174862120E-01
C35  3.850344273783E-01 -2.204225147634E-01  3.942473373829E-01
C36 -3.850344273783E-01  2.204225147634E-01 -3.942473373829E-01
C37  3.422583168457E-01 -2.907158606139E-01  4.812075352095E-01
C38 -3.422583168457E-01  2.907158606139E-01 -4.812075352095E-01
C39  3.668845556134E-01 -1.893446899729E-02  3.938083702260E-01
C40 -3.668845556134E-01  1.893446899729E-02 -3.938083702260E-01
C41 -2.536704864923E-03 -2.703507624553E-01  3.401077675776E-01
C42  2.536704864923E-03  2.703507624553E-01 -3.401077675776E-01
C43 -9.539274586683E-02 -3.621252761776E-01  4.161615659558E-01
C44  9.539274586683E-02  3.621252761776E-01 -4.161615659558E-01
C45 -6.599935412691E-02 -7.289572889906E-02  3.424943800824E-01
C46  6.599935412691E-02  7.289572889906E-02 -3.424943800824E-01
H47  9.246982328639E-02  1.476365185906E-02  1.451531812811E-01
H48 -9.246982328639E-02 -1.476365185906E-02 -1.451531812811E-01
H49 -2.207496365386E-01  1.581195715540E-01  1.541254729079E-01
H50  2.207496365386E-01 -1.581195715540E-01 -1.541254729079E-01
H51 -4.439895489369E-01  3.411652862911E-01  9.136987040082E-02
H52  4.439895489369E-01 -3.411652862911E-01 -9.136987040082E-02
H53 -3.477083415401E-01  4.704293019510E-01 -4.812495309728E-02
H54  3.477083415401E-01 -4.704293019510E-01  4.812495309728E-02
H55 -2.885604713699E-02  4.196618877062E-01 -1.219036655323E-01
H56  2.885604713699E-02 -4.196618877062E-01  1.219036655323E-01
H57  2.836173471577E-01  2.741980961225E-01 -1.293345416641E-01
H58 -2.836173471577E-01 -2.741980961225E-01  1.293345416641E-01
H59  2.733826608464E-01  3.701878488621E-01  3.663563580604E-01
H60 -2.733826608464E-01 -3.701878488621E-01 -3.663563580604E-01
H61  2.753245178458E-01  4.229845530730E-01  1.824935770939E-01
H62 -2.753245178458E-01 -4.229845530730E-01 -1.824935770939E-01
H63  8.904466102454E-02  3.647178754794E-01  2.572572319476E-01
H64 -8.904466102454E-02 -3.647178754794E-01 -2.572572319476E-01
H65  2.869676574439E-01  2.127961401602E-01  2.282625597728E-01
H66 -2.869676574439E-01 -2.127961401602E-01 -2.282625597728E-01
H67 -4.250756303315E-01  2.487065222290E-01  2.786151611696E-01
H68  4.250756303315E-01 -2.487065222290E-01 -2.786151611696E-01
H69 -4.012661248013E-01  4.341239379402E-01  3.381281488705E-01
H70  4.012661248013E-01 -4.341239379402E-01 -3.381281488705E-01
H71 -4.048865195130E-01  4.558555441578E-01  2.319195928370E-01
H72  4.048865195130E-01 -4.558555441578E-01 -2.319195928370E-01
H73 -4.715307348345E-01 -2.669446178118E-01  3.670244887482E-01
H74  4.715307348345E-01  2.669446178118E-01 -3.670244887482E-01
H75  4.370731347144E-01 -2.485590698623E-01 -4.812729784615E-01
H76 -4.370731347144E-01  2.485590698623E-01  4.812729784615E-01
H77  3.517265705731E-01 -4.350173203573E-01  4.817968097505E-01
H78 -3.517265705731E-01  4.350173203573E-01 -4.817968097505E-01
H79  2.035968337686E-01 -2.403688068924E-01 -4.875060858707E-01
H80 -2.035968337686E-01  2.403688068924E-01  4.875060858707E-01
H81  2.291123510686E-01  3.745865733059E-02  4.236050514257E-01
H82 -2.291123510686E-01 -3.745865733059E-02 -4.236050514257E-01
H83  3.936692013276E-01  3.008370534919E-02  3.310291414550E-01
H84 -3.936692013276E-01 -3.008370534919E-02 -3.310291414550E-01
H85  4.641585538881E-01  3.254506863631E-02  4.273823947100E-01
H86 -4.641585538881E-01 -3.254506863631E-02 -4.273823947100E-01
H87 -4.056795458623E-02 -3.285926882089E-01  2.856820949364E-01
H88  4.056795458623E-02  3.285926882089E-01 -2.856820949364E-01
H89 -5.809302624523E-02  4.949062879087E-01  4.124779819164E-01
H90  5.809302624523E-02 -4.949062879087E-01 -4.124779819164E-01
H91 -2.450110069826E-01 -3.385891486952E-01  4.239953218945E-01
H92  2.450110069826E-01  3.385891486952E-01 -4.239953218945E-01
H93 -5.832119052813E-02 -3.127371291196E-01  4.722851678837E-01
H94  5.832119052813E-02  3.127371291196E-01 -4.722851678837E-01
H95  9.419708167403E-03 -4.745462065853E-03  2.907584999144E-01
H96 -9.419708167403E-03  4.745462065853E-03 -2.907584999144E-01
H97 -4.633113077855E-02 -1.003090472206E-02  3.992297135852E-01
H98  4.633113077855E-02  1.003090472206E-02 -3.992297135852E-01
H99 -2.126112167737E-01 -4.987174672024E-02  3.407292117932E-01
H100  2.126112167737E-01  4.987174672024E-02 -3.407292117932E-01


#===END

data_OPT_STEP_9

_symmetry_space_group_name_H-M 'P 1'
_cell_length_a      7.44738210
_cell_length_b      7.58050075
_cell_length_c     16.43938452
_cell_angle_alpha   90.586935
_cell_angle_beta   79.207654
_cell_angle_gamma   84.261059

loop_
_atom_site_label
_atom_site_fract_x
_atom_site_fract_y
_atom_site_fract_z
SI1  2.555034618930E-01 -3.183993908028E-01  3.209366277485E-01
SI2 -2.555034618930E-01  3.183993908028E-01 -3.209366277485E-01
C3  4.454220611093E-01 -7.349428859761E-02  7.841303085364E-02
C4 -4.454220611093E-01  7.349428859761E-02 -7.841303085364E-02
C5  3.177080790618E-01  3.981391039609E-02  4.496106426682E-02
C6 -3.177080790618E-01 -3.981391039609E-02 -4.496106426682E-02
C7  1.354062973697E-01  7.750855519355E-02  8.654078553998E-02
C8 -1.354062973697E-01 -7.750855519355E-02 -8.654078553998E-02
C9  8.251463562521E-03  1.835450673833E-01  5.289918293812E-02
C10 -8.251463562521E-03 -1.835450673833E-01 -5.289918293812E-02
C11 -1.786208256214E-01  2.169447257003E-01  9.378151608880E-02
C12  1.786208256214E-01 -2.169447257003E-01 -9.378151608880E-02
C13 -3.021330150015E-01  3.182017342083E-01  5.847721947101E-02
C14  3.021330150015E-01 -3.182017342083E-01 -5.847721947101E-02
C15 -2.471745583422E-01  3.933757823985E-01 -1.999997436362E-02
C16  2.471745583422E-01 -3.933757823985E-01  1.999997436362E-02
C17 -7.116742647156E-02  3.636118132608E-01 -6.155493283653E-02
C18  7.116742647156E-02 -3.636118132608E-01  6.155493283653E-02
C19  6.278712511417E-02  2.563913974783E-01 -2.743101826786E-02
C20 -6.278712511417E-02 -2.563913974783E-01  2.743101826786E-02
C21  2.424480847480E-01  2.218155093012E-01 -6.850412588959E-02
C22 -2.424480847480E-01 -2.218155093012E-01  6.850412588959E-02
C23  3.726390718730E-01  1.138768089528E-01 -3.499303665216E-02
C24 -3.726390718730E-01 -1.138768089528E-01  3.499303665216E-02
C25  3.887324623258E-01 -1.517128476254E-01  1.550815845790E-01
C26 -3.887324623258E-01  1.517128476254E-01 -1.550815845790E-01
C27  3.395475238132E-01 -2.205590706607E-01  2.209033487923E-01
C28 -3.395475238132E-01  2.205590706607E-01 -2.209033487923E-01
C29  3.241014006268E-01  4.323356127611E-01  3.092317950013E-01
C30 -3.241014006268E-01 -4.323356127611E-01 -3.092317950013E-01
C31  2.359453930781E-01  3.520473310171E-01  2.424741419838E-01
C32 -2.359453930781E-01 -3.520473310171E-01 -2.424741419838E-01
C33 -4.667648651904E-01  3.930690087623E-01  2.898118201575E-01
C34  4.667648651904E-01 -3.930690087623E-01 -2.898118201575E-01
C35  3.825852350729E-01 -2.165913448713E-01  3.965499000127E-01
C36 -3.825852350729E-01  2.165913448713E-01 -3.965499000127E-01
C37  3.421819932426E-01 -2.899548567658E-01  4.833905518800E-01
C38 -3.421819932426E-01  2.899548567658E-01 -4.833905518800E-01
C39  3.611442301923E-01 -1.426158151331E-02  3.979710457296E-01
C40 -3.611442301923E-01  1.426158151331E-02 -3.979710457296E-01
C41 -4.600963331528E-03 -2.675062161053E-01  3.410372525222E-01
C42  4.600963331528E-03  2.675062161053E-01 -3.410372525222E-01
C43 -9.721933438152E-02 -3.597523132725E-01  4.171649253277E-01
C44  9.721933438152E-02  3.597523132725E-01 -4.171649253277E-01
C45 -6.816890725901E-02 -6.938417167051E-02  3.442099034710E-01
C46  6.816890725901E-02  6.938417167051E-02 -3.442099034710E-01
H47  9.313498123232E-02  1.700647473898E-02  1.456317040046E-01
H48 -9.313498123232E-02 -1.700647473898E-02 -1.456317040046E-01
H49 -2.210686090029E-01  1.545525551144E-01  1.522989258004E-01
H50  2.210686090029E-01 -1.545525551144E-01 -1.522989258004E-01
H51 -4.446969408197E-01  3.382185346592E-01  8.970629753727E-02
H52  4.446969408197E-01 -3.382185346592E-01 -8.970629753727E-02
H53 -3.478626514779E-01  4.728967079097E-01 -4.753792716541E-02
H54  3.478626514779E-01 -4.728967079097E-01  4.753792716541E-02
H55 -2.833927384022E-02  4.242330211805E-01 -1.204670696229E-01
H56  2.833927384022E-02 -4.242330211805E-01  1.204670696229E-01
H57  2.851608524899E-01  2.786990573340E-01 -1.284095306921E-01
H58 -2.851608524899E-01 -2.786990573340E-01  1.284095306921E-01
H59  2.719637001725E-01  3.736646039140E-01  3.689143993717E-01
H60 -2.719637001725E-01 -3.736646039140E-01 -3.689143993717E-01
H61  2.721534036769E-01  4.189640158173E-01  1.835428409093E-01
H62 -2.721534036769E-01 -4.189640158173E-01 -1.835428409093E-01
H63  8.563808252140E-02  3.641413861654E-01  2.594068942841E-01
H64 -8.563808252140E-02 -3.641413861654E-01 -2.594068942841E-01
H65  2.829026718153E-01  2.101066677024E-01  2.310130070667E-01
H66 -2.829026718153E-01 -2.101066677024E-01 -2.310130070667E-01
H67 -4.267836717597E-01  2.500369614208E-01  2.804760589899E-01
H68  4.267836717597E-01 -2.500369614208E-01 -2.804760589899E-01
H69 -4.025941146325E-01  4.382658343349E-01  3.398920309378E-01
H70  4.025941146325E-01 -4.382658343349E-01 -3.398920309378E-01
H71 -4.073708757748E-01  4.569929411909E-01  2.329436380352E-01
H72  4.073708757748E-01 -4.569929411909E-01 -2.329436380352E-01
H73 -4.735170597989E-01 -2.609831314630E-01  3.685542263611E-01
H74  4.735170597989E-01  2.609831314630E-01 -3.685542263611E-01
H75  4.378201604863E-01 -2.484574900556E-01 -4.786174871835E-01
H76 -4.378201604863E-01  2.484574900556E-01  4.786174871835E-01
H77  3.526795861790E-01 -4.349884645604E-01  4.824543228290E-01
H78 -3.526795861790E-01  4.349884645604E-01 -4.824543228290E-01
H79  2.035002823681E-01 -2.409319466033E-01 -4.842952608461E-01
H80 -2.035002823681E-01  2.409319466033E-01  4.842952608461E-01
H81  2.230151303334E-01  3.996391221920E-02  4.290730866932E-01
H82 -2.230151303334E-01 -3.996391221920E-02 -4.290730866932E-01
H83  3.851878254656E-01  3.677668204636E-02  3.351710822492E-01
H84 -3.851878254656E-01 -3.677668204636E-02 -3.351710822492E-01
H85  4.589608599663E-01  3.806589231662E-02  4.317315767907E-01
H86 -4.589608599663E-01 -3.806589231662E-02 -4.317315767907E-01
H87 -4.275464112946E-02 -3.260063782899E-01  2.859206441833E-01
H88  4.275464112946E-02  3.260063782899E-01 -2.859206441833E-01
H89 -6.062528355875E-02  4.965912043625E-01  4.126776398751E-01
H90  6.062528355875E-02 -4.965912043625E-01 -4.126776398751E-01
H91 -2.470605647177E-01 -3.354410448000E-01  4.252989764943E-01
H92  2.470605647177E-01  3.354410448000E-01 -4.252989764943E-01
H93 -5.888017666564E-02 -3.109720696930E-01  4.738760799839E-01
H94  5.888017666564E-02  3.109720696930E-01 -4.738760799839E-01
H95  7.579356811708E-03 -6.190689812590E-04  2.926010849439E-01
H96 -7.579356811708E-03  6.190689812589E-04 -2.926010849439E-01
H97 -4.879121307308E-02 -6.516913852109E-03  4.017765715088E-01
H98  4.879121307308E-02  6.516913852109E-03 -4.017765715088E-01
H99 -2.149471322692E-01 -4.639483265390E-02  3.421471654142E-01
H100  2.149471322692E-01  4.639483265390E-02 -3.421471654142E-01


#===END

data_OPT_STEP_10

_symmetry_space_group_name_H-M 'P 1'
_cell_length_a      7.44261585
_cell_length_b      7.62485837
_cell_length_c     16.37201524
_cell_angle_alpha   90.672576
_cell_angle_beta   79.255368
_cell_angle_gamma   84.114220

loop_
_atom_site_label
_atom_site_fract_x
_atom_site_fract_y
_atom_site_fract_z
SI1  2.523435668473E-01 -3.149374496606E-01  3.218717784665E-01
SI2 -2.523435668473E-01  3.149374496606E-01 -3.218717784665E-01
C3  4.450542237456E-01 -7.240391406201E-02  7.871511937730E-02
C4 -4.450542237456E-01  7.240391406201E-02 -7.871511937730E-02
C5  3.174674064464E-01  4.023514190302E-02  4.479588807077E-02
C6 -3.174674064464E-01 -4.023514190302E-02 -4.479588807077E-02
C7  1.350901275146E-01  7.854404287607E-02  8.630569275459E-02
C8 -1.350901275146E-01 -7.854404287607E-02 -8.630569275459E-02
C9  8.473078622987E-03  1.856689791897E-01  5.286730425472E-02
C10 -8.473078622987E-03 -1.856689791897E-01 -5.286730425472E-02
C11 -1.775936377628E-01  2.228933956542E-01  9.479053380509E-02
C12  1.775936377628E-01 -2.228933956542E-01 -9.479053380509E-02
C13 -3.016874543140E-01  3.217423869806E-01  5.875586496724E-02
C14  3.016874543140E-01 -3.217423869806E-01 -5.875586496724E-02
C15 -2.471307506919E-01  3.945325489478E-01 -2.021174252149E-02
C16  2.471307506919E-01 -3.945325489478E-01  2.021174252149E-02
C17 -7.144337925944E-02  3.625539395101E-01 -6.236203788706E-02
C18  7.144337925944E-02 -3.625539395101E-01  6.236203788706E-02
C19  6.295047374359E-02  2.568875726870E-01 -2.780999872740E-02
C20 -6.295047374359E-02 -2.568875726870E-01  2.780999872740E-02
C21  2.421447159289E-01  2.194396456473E-01 -6.957763940634E-02
C22 -2.421447159289E-01 -2.194396456473E-01  6.957763940634E-02
C23  3.726543865696E-01  1.132388005539E-01 -3.541650983420E-02
C24 -3.726543865696E-01 -1.132388005539E-01  3.541650983420E-02
C25  3.877840978152E-01 -1.491332120256E-01  1.557964126718E-01
C26 -3.877840978152E-01  1.491332120256E-01 -1.557964126718E-01
C27  3.377577787743E-01 -2.173776215624E-01  2.217591520957E-01
C28 -3.377577787743E-01  2.173776215624E-01 -2.217591520957E-01
C29  3.214358660174E-01  4.373584983279E-01  3.101824972377E-01
C30 -3.214358660174E-01 -4.373584983279E-01 -3.101824972377E-01
C31  2.346973105032E-01  3.571397255874E-01  2.428575346939E-01
C32 -2.346973105032E-01 -3.571397255874E-01 -2.428575346939E-01
C33 -4.692761323729E-01  3.983090485897E-01  2.914198334040E-01
C34  4.692761323729E-01 -3.983090485897E-01 -2.914198334040E-01
C35  3.782669540065E-01 -2.152245973255E-01  3.986682326240E-01
C36 -3.782669540065E-01  2.152245973255E-01 -3.986682326240E-01
C37  3.395555413808E-01 -2.924996530608E-01  4.850550526849E-01
C38 -3.395555413808E-01  2.924996530608E-01 -4.850550526849E-01
C39  3.532728155227E-01 -1.391321009808E-02  4.022298162301E-01
C40 -3.532728155227E-01  1.391321009808E-02 -4.022298162301E-01
C41 -8.001733981751E-03 -2.639996898748E-01  3.417002901202E-01
C42  8.001733981751E-03  2.639996898748E-01 -3.417002901202E-01
C43 -1.001446292098E-01 -3.559409165310E-01  4.180336738224E-01
C44  1.001446292098E-01  3.559409165310E-01 -4.180336738224E-01
C45 -7.203626217430E-02 -6.692022333393E-02  3.452765329315E-01
C46  7.203626217430E-02  6.692022333393E-02 -3.452765329315E-01
H47  9.198580585946E-02  1.624758853185E-02  1.445545626728E-01
H48 -9.198580585946E-02 -1.624758853185E-02 -1.445545626728E-01
H49 -2.194146654088E-01  1.636836878529E-01  1.542395806862E-01
H50  2.194146654088E-01 -1.636836878529E-01 -1.542395806862E-01
H51 -4.444314696838E-01  3.397228560449E-01  8.921756027943E-02
H52  4.444314696838E-01 -3.397228560449E-01 -8.921756027943E-02
H53 -3.479573394019E-01  4.740518035596E-01 -4.750011433115E-02
H54  3.479573394019E-01 -4.740518035596E-01  4.750011433115E-02
H55 -2.941265952275E-02  4.195861593997E-01 -1.222961578109E-01
H56  2.941265952275E-02 -4.195861593997E-01  1.222961578109E-01
H57  2.843027651558E-01  2.727837248789E-01 -1.304917437318E-01
H58 -2.843027651558E-01 -2.727837248789E-01  1.304917437318E-01
H59  2.686327777532E-01  3.795776633720E-01  3.699929961130E-01
H60 -2.686327777532E-01 -3.795776633720E-01 -3.699929961130E-01
H61  2.699041269075E-01  4.239680327227E-01  1.840601794814E-01
H62 -2.699041269075E-01 -4.239680327227E-01 -1.840601794814E-01
H63  8.443233887327E-02  3.679639054841E-01  2.595557622794E-01
H64 -8.443233887327E-02 -3.679639054841E-01 -2.595557622794E-01
H65  2.836150374405E-01  2.167511514885E-01  2.309588656056E-01
H66 -2.836150374405E-01 -2.167511514885E-01 -2.309588656056E-01
H67 -4.285808661541E-01  2.560705319077E-01  2.818943679570E-01
H68  4.285808661541E-01 -2.560705319077E-01 -2.818943679570E-01
H69 -4.062798217901E-01  4.431802492453E-01  3.421560713242E-01
H70  4.062798217901E-01 -4.431802492453E-01 -3.421560713242E-01
H71 -4.092075844596E-01  4.621812981518E-01  2.346614518102E-01
H72  4.092075844596E-01 -4.621812981518E-01 -2.346614518102E-01
H73 -4.771388676192E-01 -2.567818365518E-01  3.700745582382E-01
H74  4.771388676192E-01  2.567818365518E-01 -3.700745582382E-01
H75  4.346702186029E-01 -2.520915640962E-01 -4.763463541198E-01
H76 -4.346702186029E-01  2.520915640962E-01  4.763463541198E-01
H77  3.523378167265E-01 -4.369430220247E-01  4.826782441644E-01
H78 -3.523378167265E-01  4.369430220247E-01 -4.826782441644E-01
H79  2.003335886649E-01 -2.461113594049E-01 -4.819414079761E-01
H80 -2.003335886649E-01  2.461113594049E-01  4.819414079761E-01
H81  2.147117967923E-01  3.755503259919E-02  4.344954914848E-01
H82 -2.147117967923E-01 -3.755503259919E-02 -4.344954914848E-01
H83  3.750609943393E-01  3.978400946120E-02  3.396747796812E-01
H84 -3.750609943393E-01 -3.978400946120E-02 -3.396747796812E-01
H85  4.511103702961E-01  3.774376846547E-02  4.362296638523E-01
H86 -4.511103702961E-01 -3.774376846547E-02 -4.362296638523E-01
H87 -4.615336016198E-02 -3.219792027686E-01  2.862628369575E-01
H88  4.615336016198E-02  3.219792027686E-01 -2.862628369575E-01
H89 -6.314957344945E-02 -4.988405844307E-01  4.132239075194E-01
H90  6.314957344945E-02  4.988405844307E-01 -4.132239075194E-01
H91 -2.502223042166E-01 -3.317278099925E-01  4.265364144781E-01
H92  2.502223042166E-01  3.317278099925E-01 -4.265364144781E-01
H93 -6.127575083919E-02 -3.078364674290E-01  4.749599292102E-01
H94  6.127575083919E-02  3.078364674290E-01 -4.749599292102E-01
H95  3.138966678727E-03  1.668359065509E-03  2.934874502366E-01
H96 -3.138966678727E-03 -1.668359065509E-03 -2.934874502366E-01
H97 -5.203366268999E-02 -4.767567746705E-03  4.030692258463E-01
H98  5.203366268999E-02  4.767567746705E-03 -4.030692258463E-01
H99 -2.191741929653E-01 -4.379450462933E-02  3.435450265245E-01
H100  2.191741929653E-01  4.379450462933E-02 -3.435450265245E-01


#===END

data_OPT_STEP_11

_symmetry_space_group_name_H-M 'P 1'
_cell_length_a      7.43088070
_cell_length_b      7.56570264
_cell_length_c     16.33254661
_cell_angle_alpha   91.039879
_cell_angle_beta   79.388016
_cell_angle_gamma   84.305477

loop_
_atom_site_label
_atom_site_fract_x
_atom_site_fract_y
_atom_site_fract_z
SI1  2.489301879541E-01 -3.133454061861E-01  3.222644821119E-01
SI2 -2.489301879541E-01  3.133454061861E-01 -3.222644821119E-01
C3  4.450733087182E-01 -7.178604026057E-02  7.896623693765E-02
C4 -4.450733087182E-01  7.178604026057E-02 -7.896623693765E-02
C5  3.175265693831E-01  4.070422955145E-02  4.467425760210E-02
C6 -3.175265693831E-01 -4.070422955145E-02 -4.467425760210E-02
C7  1.359020556954E-01  8.223539982342E-02  8.693724064307E-02
C8 -1.359020556954E-01 -8.223539982342E-02 -8.693724064307E-02
C9  8.905649926764E-03  1.878606173662E-01  5.286145531419E-02
C10 -8.905649926764E-03 -1.878606173662E-01 -5.286145531419E-02
C11 -1.766912563688E-01  2.266154385875E-01  9.523736442447E-02
C12  1.766912563688E-01 -2.266154385875E-01 -9.523736442447E-02
C13 -3.009995768813E-01  3.260352873513E-01  5.951527075862E-02
C14  3.009995768813E-01 -3.260352873513E-01 -5.951527075862E-02
C15 -2.485998202754E-01  3.911139901952E-01 -2.195452107478E-02
C16  2.485998202754E-01 -3.911139901952E-01  2.195452107478E-02
C17 -7.262186092237E-02  3.605658442782E-01 -6.358164087345E-02
C18  7.262186092237E-02 -3.605658442782E-01  6.358164087345E-02
C19  6.294454145947E-02  2.578348760735E-01 -2.812292847337E-02
C20 -6.294454145947E-02 -2.578348760735E-01  2.812292847337E-02
C21  2.418495303024E-01  2.188916727318E-01 -7.018415937420E-02
C22 -2.418495303024E-01 -2.188916727318E-01  7.018415937420E-02
C23  3.725852289227E-01  1.131175355247E-01 -3.575770006845E-02
C24 -3.725852289227E-01 -1.131175355247E-01  3.575770006845E-02
C25  3.874404276818E-01 -1.474534590496E-01  1.564162936035E-01
C26 -3.874404276818E-01  1.474534590496E-01 -1.564162936035E-01
C27  3.364068389055E-01 -2.155055861366E-01  2.223023951928E-01
C28 -3.364068389055E-01  2.155055861366E-01 -2.223023951928E-01
C29  3.168741997691E-01  4.372352632923E-01  3.109107157915E-01
C30 -3.168741997691E-01 -4.372352632923E-01 -3.109107157915E-01
C31  2.311320373649E-01  3.552809849127E-01  2.432647786488E-01
C32 -2.311320373649E-01 -3.552809849127E-01 -2.432647786488E-01
C33 -4.738797794568E-01  3.975966742292E-01  2.929903088954E-01
C34  4.738797794568E-01 -3.975966742292E-01 -2.929903088954E-01
C35  3.744070998034E-01 -2.137250181247E-01  4.001585399754E-01
C36 -3.744070998034E-01  2.137250181247E-01 -4.001585399754E-01
C37  3.364409609770E-01 -2.939937986236E-01  4.858299387557E-01
C38 -3.364409609770E-01  2.939937986236E-01 -4.858299387557E-01
C39  3.479235925707E-01 -1.131396047200E-02  4.054581135223E-01
C40 -3.479235925707E-01  1.131396047200E-02 -4.054581135223E-01
C41 -1.150646028983E-02 -2.613825708881E-01  3.416575512268E-01
C42  1.150646028983E-02  2.613825708881E-01 -3.416575512268E-01
C43 -1.032582197803E-01 -3.513742938916E-01  4.187221098455E-01
C44  1.032582197803E-01  3.513742938916E-01 -4.187221098455E-01
C45 -7.479960053918E-02 -6.301779603465E-02  3.443993788099E-01
C46  7.479960053918E-02  6.301779603465E-02 -3.443993788099E-01
H47  9.345909406216E-02  2.329549546849E-02  1.463932866219E-01
H48 -9.345909406216E-02 -2.329549546849E-02 -1.463932866219E-01
H49 -2.177644510280E-01  1.693715747852E-01  1.553623964478E-01
H50  2.177644510280E-01 -1.693715747852E-01 -1.553623964478E-01
H51 -4.431067874877E-01  3.468510292367E-01  9.122554843566E-02
H52  4.431067874877E-01 -3.468510292367E-01 -9.122554843566E-02
H53 -3.501338896198E-01  4.692300069139E-01 -4.955650408781E-02
H54  3.501338896198E-01 -4.692300069139E-01  4.955650408781E-02
H55 -3.193559923093E-02  4.143351610277E-01 -1.246571932273E-01
H56  3.193559923093E-02 -4.143351610277E-01  1.246571932273E-01
H57  2.834891867610E-01  2.704262964885E-01 -1.316190774135E-01
H58 -2.834891867610E-01 -2.704262964885E-01  1.316190774135E-01
H59  2.628867786774E-01  3.804691285528E-01  3.708042666134E-01
H60 -2.628867786774E-01 -3.804691285528E-01 -3.708042666134E-01
H61  2.657659772595E-01  4.222037527993E-01  1.846454436512E-01
H62 -2.657659772595E-01 -4.222037527993E-01 -1.846454436512E-01
H63  8.093982794951E-02  3.650218222525E-01  2.596227101488E-01
H64 -8.093982794951E-02 -3.650218222525E-01 -2.596227101488E-01
H65  2.812954652164E-01  2.147247433748E-01  2.311360975376E-01
H66 -2.812954652164E-01 -2.147247433748E-01 -2.311360975376E-01
H67 -4.334640308037E-01  2.541870996383E-01  2.838828035654E-01
H68  4.334640308037E-01 -2.541870996383E-01 -2.838828035654E-01
H69 -4.117607247214E-01  4.440312933989E-01  3.440858928943E-01
H70  4.117607247214E-01 -4.440312933989E-01 -3.440858928943E-01
H71 -4.127031335072E-01  4.608250444753E-01  2.362194536014E-01
H72  4.127031335072E-01 -4.608250444753E-01 -2.362194536014E-01
H73 -4.807234570669E-01 -2.535772295615E-01  3.713880208450E-01
H74  4.807234570669E-01  2.535772295615E-01 -3.713880208450E-01
H75  4.301154392759E-01 -2.523219513335E-01 -4.748424646035E-01
H76 -4.301154392759E-01  2.523219513335E-01  4.748424646035E-01
H77  3.517730138078E-01 -4.393861125653E-01  4.823912555036E-01
H78 -3.517730138078E-01  4.393861125653E-01 -4.823912555036E-01
H79  1.965535934215E-01 -2.501487437934E-01 -4.811401362030E-01
H80 -1.965535934215E-01  2.501487437934E-01  4.811401362030E-01
H81  2.093692164333E-01  3.891501099865E-02  4.379722560912E-01
H82 -2.093692164333E-01 -3.891501099865E-02 -4.379722560912E-01
H83  3.692315853386E-01  4.410402000501E-02  3.433387421772E-01
H84 -3.692315853386E-01 -4.410402000501E-02 -3.433387421772E-01
H85  4.453122608881E-01  4.081029452143E-02  4.400100390158E-01
H86 -4.453122608881E-01 -4.081029452143E-02 -4.400100390158E-01
H87 -5.054690813744E-02 -3.217788840549E-01  2.865620058044E-01
H88  5.054690813744E-02  3.217788840549E-01 -2.865620058044E-01
H89 -6.672168598463E-02 -4.951583298171E-01  4.145276308834E-01
H90  6.672168598463E-02  4.951583298171E-01 -4.145276308834E-01
H91 -2.534719591693E-01 -3.271452567757E-01  4.276896764786E-01
H92  2.534719591693E-01  3.271452567757E-01 -4.276896764786E-01
H93 -6.313052914508E-02 -3.009189483451E-01  4.752257814178E-01
H94  6.313052914508E-02  3.009189483451E-01 -4.752257814178E-01
H95 -9.436567241700E-04  4.142523914460E-03  2.918038168585E-01
H96  9.436567241700E-04 -4.142523914460E-03 -2.918038168585E-01
H97 -5.220497575869E-02  1.571543276058E-03  4.014867002637E-01
H98  5.220497575869E-02 -1.571543276058E-03 -4.014867002637E-01
H99 -2.224847077494E-01 -3.977570512492E-02  3.436200365919E-01
H100  2.224847077494E-01  3.977570512492E-02 -3.436200365919E-01


#===END

data_OPT_STEP_12

_symmetry_space_group_name_H-M 'P 1'
_cell_length_a      7.41429890
_cell_length_b      7.60735200
_cell_length_c     16.36767362
_cell_angle_alpha   90.600344
_cell_angle_beta   79.308782
_cell_angle_gamma   84.150047

loop_
_atom_site_label
_atom_site_fract_x
_atom_site_fract_y
_atom_site_fract_z
SI1  2.464401395853E-01 -3.121568130324E-01  3.223449146713E-01
SI2 -2.464401395853E-01  3.121568130324E-01 -3.223449146713E-01
C3  4.461119307269E-01 -6.811188975606E-02  8.006799236973E-02
C4 -4.461119307269E-01  6.811188975606E-02 -8.006799236973E-02
C5  3.177580906133E-01  4.256805477814E-02  4.511129464030E-02
C6 -3.177580906133E-01 -4.256805477814E-02 -4.511129464030E-02
C7  1.359044544209E-01  8.467699956754E-02  8.738026877726E-02
C8 -1.359044544209E-01 -8.467699956754E-02 -8.738026877726E-02
C9  8.238566711235E-03  1.886889941994E-01  5.269759298205E-02
C10 -8.238566711235E-03 -1.886889941994E-01 -5.269759298205E-02
C11 -1.777297450894E-01  2.271313869163E-01  9.478903675342E-02
C12  1.777297450894E-01 -2.271313869163E-01 -9.478903675342E-02
C13 -3.021722018119E-01  3.273277816061E-01  5.935565074422E-02
C14  3.021722018119E-01 -3.273277816061E-01 -5.935565074422E-02
C15 -2.496136371288E-01  3.927332670358E-01 -2.162638671149E-02
C16  2.496136371288E-01 -3.927332670358E-01  2.162638671149E-02
C17 -7.381064467996E-02  3.600840727592E-01 -6.382136659086E-02
C18  7.381064467996E-02 -3.600840727592E-01  6.382136659086E-02
C19  6.143978114061E-02  2.552194549337E-01 -2.921168205964E-02
C20 -6.143978114061E-02 -2.552194549337E-01  2.921168205964E-02
C21  2.410954106699E-01  2.174933395168E-01 -7.076953048600E-02
C22 -2.410954106699E-01 -2.174933395168E-01  7.076953048600E-02
C23  3.717740089896E-01  1.111333447337E-01 -3.646374569675E-02
C24 -3.717740089896E-01 -1.111333447337E-01  3.646374569675E-02
C25  3.883459158112E-01 -1.435011241984E-01  1.576201850101E-01
C26 -3.883459158112E-01  1.435011241984E-01 -1.576201850101E-01
C27  3.362202220314E-01 -2.125721341613E-01  2.231221479805E-01
C28 -3.362202220314E-01  2.125721341613E-01 -2.231221479805E-01
C29  3.155834439786E-01  4.400462936454E-01  3.121114468158E-01
C30 -3.155834439786E-01 -4.400462936454E-01 -3.121114468158E-01
C31  2.283126623027E-01  3.558142091594E-01  2.460386701375E-01
C32 -2.283126623027E-01 -3.558142091594E-01 -2.460386701375E-01
C33 -4.745059477990E-01  4.014012996157E-01  2.935232542992E-01
C34  4.745059477990E-01 -4.014012996157E-01 -2.935232542992E-01
C35  3.700444466412E-01 -2.148334830043E-01  4.009813642031E-01
C36 -3.700444466412E-01  2.148334830043E-01 -4.009813642031E-01
C37  3.323625648656E-01 -2.985078535942E-01  4.856002327904E-01
C38 -3.323625648656E-01  2.985078535942E-01 -4.856002327904E-01
C39  3.408207796497E-01 -1.394145151746E-02  4.074891342495E-01
C40 -3.408207796497E-01  1.394145151746E-02 -4.074891342495E-01
C41 -1.482748375478E-02 -2.609431330935E-01  3.409485815329E-01
C42  1.482748375478E-02  2.609431330935E-01 -3.409485815329E-01
C43 -1.058848712980E-01 -3.494351476999E-01  4.186899955188E-01
C44  1.058848712980E-01  3.494351476999E-01 -4.186899955188E-01
C45 -7.929031090072E-02 -6.389209076262E-02  3.424505276088E-01
C46  7.929031090072E-02  6.389209076262E-02 -3.424505276088E-01
H47  9.503258576971E-02  3.245471997002E-02  1.492079411392E-01
H48 -9.503258576971E-02 -3.245471997002E-02 -1.492079411392E-01
H49 -2.178320542669E-01  1.739373027160E-01  1.561868211241E-01
H50  2.178320542669E-01 -1.739373027160E-01 -1.561868211241E-01
H51 -4.439709719437E-01  3.528383230996E-01  9.249037607684E-02
H52  4.439709719437E-01 -3.528383230996E-01 -9.249037607684E-02
H53 -3.522894553503E-01  4.677152034211E-01 -5.017234336463E-02
H54  3.522894553503E-01 -4.677152034211E-01  5.017234336463E-02
H55 -3.360433905610E-02  4.112168935912E-01 -1.255024802163E-01
H56  3.360433905610E-02 -4.112168935912E-01  1.255024802163E-01
H57  2.834431001320E-01  2.706954533008E-01 -1.315777750238E-01
H58 -2.834431001320E-01 -2.706954533008E-01  1.315777750238E-01
H59  2.628979219929E-01  3.852138939283E-01  3.727303997337E-01
H60 -2.628979219929E-01 -3.852138939283E-01 -3.727303997337E-01
H61  2.652696159294E-01  4.171246313502E-01  1.857944006631E-01
H62 -2.652696159294E-01 -4.171246313502E-01 -1.857944006631E-01
H63  7.746984279656E-02  3.693910547761E-01  2.624166753680E-01
H64 -7.746984279656E-02 -3.693910547761E-01 -2.624166753680E-01
H65  2.755849196924E-01  2.146036770985E-01  2.366500521253E-01
H66 -2.755849196924E-01 -2.146036770985E-01 -2.366500521253E-01
H67 -4.333391323784E-01  2.586622081452E-01  2.856578814440E-01
H68  4.333391323784E-01 -2.586622081452E-01 -2.856578814440E-01
H69 -4.113767741425E-01  4.496653548428E-01  3.436659751600E-01
H70  4.113767741425E-01 -4.496653548428E-01 -3.436659751600E-01
H71 -4.145951699031E-01  4.631582388203E-01  2.360281044312E-01
H72  4.145951699031E-01 -4.631582388203E-01 -2.360281044312E-01
H73 -4.843093179266E-01 -2.517836595167E-01  3.723935498459E-01
H74  4.843093179266E-01  2.517836595167E-01 -3.723935498459E-01
H75  4.242712892951E-01 -2.569781031589E-01 -4.745575248117E-01
H76 -4.242712892951E-01  2.569781031589E-01  4.745575248117E-01
H77  3.505190773919E-01 -4.429343738118E-01  4.815093788049E-01
H78 -3.505190773919E-01  4.429343738118E-01 -4.815093788049E-01
H79  1.914107700882E-01 -2.580677078550E-01 -4.817041310605E-01
H80 -1.914107700882E-01  2.580677078550E-01  4.817041310605E-01
H81  2.015099217337E-01  3.346607041991E-02  4.395881067487E-01
H82 -2.015099217337E-01 -3.346607041991E-02 -4.395881067487E-01
H83  3.624478656913E-01  4.352926538431E-02  3.460367371130E-01
H84 -3.624478656913E-01 -4.352926538431E-02 -3.460367371130E-01
H85  4.365955537119E-01  3.796597889266E-02  4.426083343115E-01
H86 -4.365955537119E-01 -3.796597889266E-02 -4.426083343115E-01
H87 -5.397245296936E-02 -3.223942586520E-01  2.865426387675E-01
H88  5.397245296936E-02  3.223942586520E-01 -2.865426387675E-01
H89 -6.963783704094E-02 -4.924656153619E-01  4.151720065799E-01
H90  6.963783704094E-02  4.924656153619E-01 -4.151720065799E-01
H91 -2.565666845902E-01 -3.246986669194E-01  4.283838217082E-01
H92  2.565666845902E-01  3.246986669194E-01 -4.283838217082E-01
H93 -6.419756056878E-02 -2.989125967160E-01  4.743868330004E-01
H94  6.419756056878E-02  2.989125967160E-01 -4.743868330004E-01
H95 -6.690629835777E-03  2.330418023078E-03  2.892034570234E-01
H96  6.690629835777E-03 -2.330418023078E-03 -2.892034570234E-01
H97 -5.552143149418E-02  1.529614609556E-03  3.985975147126E-01
H98  5.552143149418E-02 -1.529614609556E-03 -3.985975147126E-01
H99 -2.277546239817E-01 -4.145860617536E-02  3.424087392590E-01
H100  2.277546239817E-01  4.145860617536E-02 -3.424087392590E-01


#===END

data_OPT_STEP_13

_symmetry_space_group_name_H-M 'P 1'
_cell_length_a      7.40909479
_cell_length_b      7.59293955
_cell_length_c     16.36099219
_cell_angle_alpha   90.671654
_cell_angle_beta   79.304931
_cell_angle_gamma   84.236791

loop_
_atom_site_label
_atom_site_fract_x
_atom_site_fract_y
_atom_site_fract_z
SI1  2.464673716257E-01 -3.120902356804E-01  3.223656289287E-01
SI2 -2.464673716257E-01  3.120902356804E-01 -3.223656289287E-01
C3  4.458144934183E-01 -6.905169530584E-02  7.979063968953E-02
C4 -4.458144934183E-01  6.905169530584E-02 -7.979063968953E-02
C5  3.177048961225E-01  4.266743228734E-02  4.524005551589E-02
C6 -3.177048961225E-01 -4.266743228734E-02 -4.524005551589E-02
C7  1.357144830832E-01  8.460592557831E-02  8.751695305217E-02
C8 -1.357144830832E-01 -8.460592557831E-02 -8.751695305217E-02
C9  8.179788830702E-03  1.895432068376E-01  5.315337850718E-02
C10 -8.179788830702E-03 -1.895432068376E-01 -5.315337850718E-02
C11 -1.779338246261E-01  2.281223843086E-01  9.533536597144E-02
C12  1.779338246261E-01 -2.281223843086E-01 -9.533536597144E-02
C13 -3.026882539886E-01  3.267994215238E-01  5.928708859721E-02
C14  3.026882539886E-01 -3.267994215238E-01 -5.928708859721E-02
C15 -2.497936845143E-01  3.931521552919E-01 -2.145570442399E-02
C16  2.497936845143E-01 -3.931521552919E-01  2.145570442399E-02
C17 -7.430364016953E-02  3.587606729996E-01 -6.426945085773E-02
C18  7.430364016953E-02 -3.587606729996E-01  6.426945085773E-02
C19  6.148526507644E-02  2.559935512819E-01 -2.887468023955E-02
C20 -6.148526507644E-02 -2.559935512819E-01  2.887468023955E-02
C21  2.410068824542E-01  2.174572827566E-01 -7.071054565652E-02
C22 -2.410068824542E-01 -2.174572827566E-01  7.071054565652E-02
C23  3.719776463414E-01  1.119153840975E-01 -3.615782115258E-02
C24 -3.719776463414E-01 -1.119153840975E-01  3.615782115258E-02
C25  3.883333982291E-01 -1.439705317640E-01  1.574950045501E-01
C26 -3.883333982291E-01  1.439705317640E-01 -1.574950045501E-01
C27  3.362080069832E-01 -2.127549760376E-01  2.231080407696E-01
C28 -3.362080069832E-01  2.127549760376E-01 -2.231080407696E-01
C29  3.155398144753E-01  4.394410658762E-01  3.121038661604E-01
C30 -3.155398144753E-01 -4.394410658762E-01 -3.121038661604E-01
C31  2.277873784548E-01  3.545011463062E-01  2.461678863800E-01
C32 -2.277873784548E-01 -3.545011463062E-01 -2.461678863800E-01
C33 -4.744036627125E-01  4.005966536201E-01  2.933464738544E-01
C34  4.744036627125E-01 -4.005966536201E-01 -2.933464738544E-01
C35  3.701362614213E-01 -2.137960244072E-01  4.010358315423E-01
C36 -3.701362614213E-01  2.137960244072E-01 -4.010358315423E-01
C37  3.330134429980E-01 -2.973688503396E-01  4.856734763637E-01
C38 -3.330134429980E-01  2.973688503396E-01 -4.856734763637E-01
C39  3.403915029944E-01 -1.252309001142E-02  4.076062963040E-01
C40 -3.403915029944E-01  1.252309001142E-02 -4.076062963040E-01
C41 -1.494689914669E-02 -2.611819666923E-01  3.409506609617E-01
C42  1.494689914669E-02  2.611819666923E-01 -3.409506609617E-01
C43 -1.060171273926E-01 -3.497789262692E-01  4.187522751008E-01
C44  1.060171273926E-01  3.497789262692E-01 -4.187522751008E-01
C45 -7.971002474999E-02 -6.390962824470E-02  3.423043663363E-01
C46  7.971002474999E-02  6.390962824470E-02 -3.423043663363E-01
H47  9.417795121246E-02  2.981074082624E-02  1.483820816738E-01
H48 -9.417795121246E-02 -2.981074082624E-02 -1.483820816738E-01
H49 -2.183293060282E-01  1.737682589185E-01  1.563111796469E-01
H50  2.183293060282E-01 -1.737682589185E-01 -1.563111796469E-01
H51 -4.445660780519E-01  3.526074668924E-01  9.243254818456E-02
H52  4.445660780519E-01 -3.526074668924E-01 -9.243254818456E-02
H53 -3.524176313672E-01  4.681993928931E-01 -5.007241569638E-02
H54  3.524176313672E-01 -4.681993928931E-01  5.007241569638E-02
H55 -3.413410580533E-02  4.095118243930E-01 -1.261233053244E-01
H56  3.413410580533E-02 -4.095118243930E-01  1.261233053244E-01
H57  2.827021475245E-01  2.682553477702E-01 -1.323394348145E-01
H58 -2.827021475245E-01 -2.682553477702E-01  1.323394348145E-01
H59  2.628941076871E-01  3.847149469588E-01  3.728234515041E-01
H60 -2.628941076871E-01 -3.847149469588E-01 -3.728234515041E-01
H61  2.661819830174E-01  4.146175129335E-01  1.855077589810E-01
H62 -2.661819830174E-01 -4.146175129335E-01 -1.855077589810E-01
H63  7.668132763455E-02  3.694484696098E-01  2.624400008792E-01
H64 -7.668132763455E-02 -3.694484696098E-01 -2.624400008792E-01
H65  2.735683226418E-01  2.122784244599E-01  2.374566009843E-01
H66 -2.735683226418E-01 -2.122784244599E-01 -2.374566009843E-01
H67 -4.336013412983E-01  2.575480342619E-01  2.857030312349E-01
H68  4.336013412983E-01 -2.575480342619E-01 -2.857030312349E-01
H69 -4.107979794310E-01  4.494176165692E-01  3.432936410066E-01
H70  4.107979794310E-01 -4.494176165692E-01 -3.432936410066E-01
H71 -4.145120419511E-01  4.618479063149E-01  2.356326558202E-01
H72  4.145120419511E-01 -4.618479063149E-01 -2.356326558202E-01
H73 -4.842665670305E-01 -2.506590802476E-01  3.724171629887E-01
H74  4.842665670305E-01  2.506590802476E-01 -3.724171629887E-01
H75  4.251835228660E-01 -2.555268305516E-01 -4.744803319258E-01
H76 -4.251835228660E-01  2.555268305516E-01  4.744803319258E-01
H77  3.512550652978E-01 -4.419752750988E-01  4.814245512771E-01
H78 -3.512550652978E-01  4.419752750988E-01 -4.814245512771E-01
H79  1.920641593361E-01 -2.571663515590E-01 -4.815370625594E-01
H80 -1.920641593361E-01  2.571663515590E-01  4.815370625594E-01
H81  2.007387669482E-01  3.432021263578E-02  4.396017838655E-01
H82 -2.007387669482E-01 -3.432021263578E-02 -4.396017838655E-01
H83  3.621069056577E-01  4.520245022494E-02  3.461949633699E-01
H84 -3.621069056577E-01 -4.520245022494E-02 -3.461949633699E-01
H85  4.356939394149E-01  4.009462210940E-02  4.429669498981E-01
H86 -4.356939394149E-01 -4.009462210940E-02 -4.429669498981E-01
H87 -5.402255013713E-02 -3.231317906255E-01  2.865499319613E-01
H88  5.402255013713E-02  3.231317906255E-01 -2.865499319613E-01
H89 -6.997792233410E-02 -4.930854384587E-01  4.152017550601E-01
H90  6.997792233410E-02  4.930854384587E-01 -4.152017550601E-01
H91 -2.567336678138E-01 -3.248455593925E-01  4.284585859732E-01
H92  2.567336678138E-01  3.248455593925E-01 -4.284585859732E-01
H93 -6.426598995985E-02 -2.990991081373E-01  4.745037612617E-01
H94  6.426598995985E-02  2.990991081373E-01 -4.745037612617E-01
H95 -6.807437881231E-03  2.316541790639E-03  2.890420008954E-01
H96  6.807437881231E-03 -2.316541790639E-03 -2.890420008954E-01
H97 -5.663784892108E-02  2.229914894237E-03  3.985351390384E-01
H98  5.663784892108E-02 -2.229914894237E-03 -3.985351390384E-01
H99 -2.281263708827E-01 -4.200974304265E-02  3.420033863761E-01
H100  2.281263708827E-01  4.200974304265E-02 -3.420033863761E-01


#===END

data_OPT_STEP_14

_symmetry_space_group_name_H-M 'P 1'
_cell_length_a      7.40481728
_cell_length_b      7.58378011
_cell_length_c     16.35305895
_cell_angle_alpha   90.744401
_cell_angle_beta   79.308214
_cell_angle_gamma   84.305142

loop_
_atom_site_label
_atom_site_fract_x
_atom_site_fract_y
_atom_site_fract_z
SI1  2.463311046937E-01 -3.115022377130E-01  3.225213839970E-01
SI2 -2.463311046937E-01  3.115022377130E-01 -3.225213839970E-01
C3  4.457089257623E-01 -6.913711966408E-02  7.974280635182E-02
C4 -4.457089257623E-01  6.913711966408E-02 -7.974280635182E-02
C5  3.173976869470E-01  4.207889719955E-02  4.511003737565E-02
C6 -3.173976869470E-01 -4.207889719955E-02 -4.511003737565E-02
C7  1.352704546713E-01  8.376682828350E-02  8.735515412905E-02
C8 -1.352704546713E-01 -8.376682828350E-02 -8.735515412905E-02
C9  7.598185316127E-03  1.885266125931E-01  5.296867554791E-02
C10 -7.598185316127E-03 -1.885266125931E-01 -5.296867554791E-02
C11 -1.782026235754E-01  2.291950797392E-01  9.582211311215E-02
C12  1.782026235754E-01 -2.291950797392E-01 -9.582211311215E-02
C13 -3.030197807568E-01  3.272369334126E-01  5.945816971364E-02
C14  3.030197807568E-01 -3.272369334126E-01 -5.945816971364E-02
C15 -2.499301065580E-01  3.935393641391E-01 -2.135187629133E-02
C16  2.499301065580E-01 -3.935393641391E-01  2.135187629133E-02
C17 -7.414167751384E-02  3.597741544276E-01 -6.389430038756E-02
C18  7.414167751384E-02 -3.597741544276E-01  6.389430038756E-02
C19  6.121585701351E-02  2.557366124956E-01 -2.885849218427E-02
C20 -6.121585701351E-02 -2.557366124956E-01  2.885849218427E-02
C21  2.406776277398E-01  2.166381816112E-01 -7.089527881518E-02
C22 -2.406776277398E-01 -2.166381816112E-01  7.089527881518E-02
C23  3.718231591795E-01  1.115355332111E-01 -3.621781435613E-02
C24 -3.718231591795E-01 -1.115355332111E-01  3.621781435613E-02
C25  3.883316639840E-01 -1.437366635631E-01  1.575289599132E-01
C26 -3.883316639840E-01  1.437366635631E-01 -1.575289599132E-01
C27  3.360904601659E-01 -2.122864196589E-01  2.232483581962E-01
C28 -3.360904601659E-01  2.122864196589E-01 -2.232483581962E-01
C29  3.155940467695E-01  4.396133217417E-01  3.120040332054E-01
C30 -3.155940467695E-01 -4.396133217417E-01 -3.120040332054E-01
C31  2.276768839505E-01  3.546056285978E-01  2.459926723527E-01
C32 -2.276768839505E-01 -3.546056285978E-01 -2.459926723527E-01
C33 -4.742109310981E-01  4.007862410568E-01  2.931485470979E-01
C34  4.742109310981E-01 -4.007862410568E-01 -2.931485470979E-01
C35  3.697871229258E-01 -2.123423857488E-01  4.013227732030E-01
C36 -3.697871229258E-01  2.123423857488E-01 -4.013227732030E-01
C37  3.336161624757E-01 -2.963476505592E-01  4.860045106701E-01
C38 -3.336161624757E-01  2.963476505592E-01 -4.860045106701E-01
C39  3.386149389732E-01 -1.066971307202E-02  4.082242312919E-01
C40 -3.386149389732E-01  1.066971307202E-02 -4.082242312919E-01
C41 -1.521992943350E-02 -2.611090998279E-01  3.410181628712E-01
C42  1.521992943350E-02  2.611090998279E-01 -3.410181628712E-01
C43 -1.063505560303E-01 -3.497574770384E-01  4.188633105351E-01
C44  1.063505560303E-01  3.497574770384E-01 -4.188633105351E-01
C45 -8.048760877411E-02 -6.376599677678E-02  3.421765391482E-01
C46  8.048760877411E-02  6.376599677678E-02 -3.421765391482E-01
H47  9.361391834620E-02  2.834190776422E-02  1.479695054851E-01
H48 -9.361391834620E-02 -2.834190776422E-02 -1.479695054851E-01
H49 -2.186881872746E-01  1.756320531874E-01  1.570819667021E-01
H50  2.186881872746E-01 -1.756320531874E-01 -1.570819667021E-01
H51 -4.451709927074E-01  3.513789602591E-01  9.184515421320E-02
H52  4.451709927074E-01 -3.513789602591E-01 -9.184515421320E-02
H53 -3.522849152858E-01  4.693779361356E-01 -4.975171703879E-02
H54  3.522849152858E-01 -4.693779361356E-01  4.975171703879E-02
H55 -3.323816216752E-02  4.129058451370E-01 -1.248535604048E-01
H56  3.323816216752E-02 -4.129058451370E-01  1.248535604048E-01
H57  2.824499009472E-01  2.674628419651E-01 -1.325418078699E-01
H58 -2.824499009472E-01 -2.674628419651E-01  1.325418078699E-01
H59  2.629855403379E-01  3.845520714597E-01  3.726739273568E-01
H60 -2.629855403379E-01 -3.845520714597E-01 -3.726739273568E-01
H61  2.651437784081E-01  4.157061579713E-01  1.856016241747E-01
H62 -2.651437784081E-01 -4.157061579713E-01 -1.856016241747E-01
H63  7.658582722254E-02  3.683101125683E-01  2.624163504796E-01
H64 -7.658582722254E-02 -3.683101125683E-01 -2.624163504796E-01
H65  2.742348249443E-01  2.126201496382E-01  2.368289719504E-01
H66 -2.742348249443E-01 -2.126201496382E-01 -2.368289719504E-01
H67 -4.335287883205E-01  2.576184281914E-01  2.854145276895E-01
H68  4.335287883205E-01 -2.576184281914E-01 -2.854145276895E-01
H69 -4.103352122663E-01  4.496333743538E-01  3.430657129858E-01
H70  4.103352122663E-01 -4.496333743538E-01 -3.430657129858E-01
H71 -4.143475676310E-01  4.620642797766E-01  2.354040984915E-01
H72  4.143475676310E-01 -4.620642797766E-01 -2.354040984915E-01
H73 -4.845005319161E-01 -2.486362430859E-01  3.725279905970E-01
H74  4.845005319161E-01  2.486362430859E-01 -3.725279905970E-01
H75  4.261416915857E-01 -2.542984530746E-01 -4.741560204105E-01
H76 -4.261416915857E-01  2.542984530746E-01  4.741560204105E-01
H77  3.521884075716E-01 -4.411385650014E-01  4.814703158765E-01
H78 -3.521884075716E-01  4.411385650014E-01 -4.814703158765E-01
H79  1.926256262232E-01 -2.566445794192E-01 -4.809331686542E-01
H80 -1.926256262232E-01  2.566445794192E-01  4.809331686542E-01
H81  1.984338053477E-01  3.502882748077E-02  4.404271833551E-01
H82 -1.984338053477E-01 -3.502882748077E-02 -4.404271833551E-01
H83  3.597397909443E-01  4.786217358821E-02  3.468650236316E-01
H84 -3.597397909443E-01 -4.786217358821E-02 -3.468650236316E-01
H85  4.335371998057E-01  4.267016824727E-02  4.437718516168E-01
H86 -4.335371998057E-01 -4.267016824727E-02 -4.437718516168E-01
H87 -5.400484792439E-02 -3.235966834558E-01  2.865748633042E-01
H88  5.400484792439E-02  3.235966834558E-01 -2.865748633042E-01
H89 -7.050700451972E-02 -4.932854359603E-01  4.152502972369E-01
H90  7.050700451972E-02  4.932854359603E-01 -4.152502972369E-01
H91 -2.571066805142E-01 -3.245993434173E-01  4.285660536702E-01
H92  2.571066805142E-01  3.245993434173E-01 -4.285660536702E-01
H93 -6.455535361445E-02 -2.990333807609E-01  4.747121509009E-01
H94  6.455535361445E-02  2.990333807609E-01 -4.747121509009E-01
H95 -7.092183473611E-03  2.454557454479E-03  2.889493926054E-01
H96  7.092183473611E-03 -2.454557454479E-03 -2.889493926054E-01
H97 -5.856848335213E-02  3.136488099139E-03  3.985757284463E-01
H98  5.856848335213E-02 -3.136488099139E-03 -3.985757284463E-01
H99 -2.287920522370E-01 -4.256627773018E-02  3.414191611075E-01
H100  2.287920522370E-01  4.256627773018E-02 -3.414191611075E-01


#===END

data_OPT_STEP_15

_symmetry_space_group_name_H-M 'P 1'
_cell_length_a      7.40059534
_cell_length_b      7.57787422
_cell_length_c     16.34405647
_cell_angle_alpha   90.832974
_cell_angle_beta   79.323766
_cell_angle_gamma   84.340534

loop_
_atom_site_label
_atom_site_fract_x
_atom_site_fract_y
_atom_site_fract_z
SI1  2.456832205035E-01 -3.107863043939E-01  3.226223285356E-01
SI2 -2.456832205035E-01  3.107863043939E-01 -3.226223285356E-01
C3  4.457029150295E-01 -6.866390329163E-02  7.983731419631E-02
C4 -4.457029150295E-01  6.866390329163E-02 -7.983731419631E-02
C5  3.173380744077E-01  4.238972682541E-02  4.515312221407E-02
C6 -3.173380744077E-01 -4.238972682541E-02 -4.515312221407E-02
C7  1.351018689760E-01  8.408544535707E-02  8.734576519125E-02
C8 -1.351018689760E-01 -8.408544535707E-02 -8.734576519125E-02
C9  7.465899285716E-03  1.890721688436E-01  5.303203819120E-02
C10 -7.465899285716E-03 -1.890721688436E-01 -5.303203819120E-02
C11 -1.785569011659E-01  2.291722904838E-01  9.565012233590E-02
C12  1.785569011659E-01 -2.291722904838E-01 -9.565012233590E-02
C13 -3.032788513273E-01  3.276862948828E-01  5.943282685627E-02
C14  3.032788513273E-01 -3.276862948828E-01 -5.943282685627E-02
C15 -2.501697339723E-01  3.936541873975E-01 -2.145492075301E-02
C16  2.501697339723E-01 -3.936541873975E-01  2.145492075301E-02
C17 -7.435905674469E-02  3.595291658861E-01 -6.406548390450E-02
C18  7.435905674469E-02 -3.595291658861E-01  6.406548390450E-02
C19  6.116338867972E-02  2.560959984882E-01 -2.881588726143E-02
C20 -6.116338867972E-02 -2.560959984882E-01  2.881588726143E-02
C21  2.407478920164E-01  2.169078652249E-01 -7.082928023871E-02
C22 -2.407478920164E-01 -2.169078652249E-01  7.082928023871E-02
C23  3.718181374205E-01  1.115140115305E-01 -3.622661051326E-02
C24 -3.718181374205E-01 -1.115140115305E-01  3.622661051326E-02
C25  3.882757388402E-01 -1.430056504714E-01  1.576699680959E-01
C26 -3.882757388402E-01  1.430056504714E-01 -1.576699680959E-01
C27  3.357602996808E-01 -2.114530061169E-01  2.234197821858E-01
C28 -3.357602996808E-01  2.114530061169E-01 -2.234197821858E-01
C29  3.153068357364E-01  4.401549976096E-01  3.118429034571E-01
C30 -3.153068357364E-01 -4.401549976096E-01 -3.118429034571E-01
C31  2.277206192237E-01  3.551163748411E-01  2.456193177179E-01
C32 -2.277206192237E-01 -3.551163748411E-01 -2.456193177179E-01
C33 -4.743753266730E-01  4.014667264040E-01  2.931109323426E-01
C34  4.743753266730E-01 -4.014667264040E-01 -2.931109323426E-01
C35  3.686434943906E-01 -2.111481951774E-01  4.017163230269E-01
C36 -3.686434943906E-01  2.111481951774E-01 -4.017163230269E-01
C37  3.333625144020E-01 -2.959174915974E-01  4.863431770560E-01
C38 -3.333625144020E-01  2.959174915974E-01 -4.863431770560E-01
C39  3.357909930627E-01 -9.251261694921E-03  4.091252435333E-01
C40 -3.357909930627E-01  9.251261694921E-03 -4.091252435333E-01
C41 -1.603042009816E-02 -2.609226039852E-01  3.409444266786E-01
C42  1.603042009816E-02  2.609226039852E-01 -3.409444266786E-01
C43 -1.070982256123E-01 -3.493691270225E-01  4.188918256408E-01
C44  1.070982256123E-01  3.493691270225E-01 -4.188918256408E-01
C45 -8.191058681997E-02 -6.359892035104E-02  3.418500417958E-01
C46  8.191058681997E-02  6.359892035104E-02 -3.418500417958E-01
H47  9.318884903045E-02  2.792952511456E-02  1.476389530301E-01
H48 -9.318884903045E-02 -2.792952511456E-02 -1.476389530301E-01
H49 -2.193211818245E-01  1.746057935291E-01  1.564799017609E-01
H50  2.193211818245E-01 -1.746057935291E-01 -1.564799017609E-01
H51 -4.455997298301E-01  3.508848230058E-01  9.136036503157E-02
H52  4.455997298301E-01 -3.508848230058E-01 -9.136036503157E-02
H53 -3.523671770402E-01  4.701434367905E-01 -4.961800472335E-02
H54  3.523671770402E-01 -4.701434367905E-01  4.961800472335E-02
H55 -3.385030932506E-02  4.108911813982E-01 -1.256584936204E-01
H56  3.385030932506E-02 -4.108911813982E-01  1.256584936204E-01
H57  2.828195318284E-01  2.683274045565E-01 -1.322591641114E-01
H58 -2.828195318284E-01 -2.683274045565E-01  1.322591641114E-01
H59  2.625508262657E-01  3.848493097854E-01  3.724166244141E-01
H60 -2.625508262657E-01 -3.848493097854E-01 -3.724166244141E-01
H61  2.644096164963E-01  4.170827374147E-01  1.855351271952E-01
H62 -2.644096164963E-01 -4.170827374147E-01 -1.855351271952E-01
H63  7.665471003275E-02  3.676146761462E-01  2.620288633201E-01
H64 -7.665471003275E-02 -3.676146761462E-01 -2.620288633201E-01
H65  2.752825408446E-01  2.135022130422E-01  2.360046434711E-01
H66 -2.752825408446E-01 -2.135022130422E-01 -2.360046434711E-01
H67 -4.335709647237E-01  2.582401818777E-01  2.852677057491E-01
H68  4.335709647237E-01 -2.582401818777E-01 -2.852677057491E-01
H69 -4.106265549016E-01  4.503719231077E-01  3.431314914290E-01
H70  4.106265549016E-01 -4.503719231077E-01 -3.431314914290E-01
H71 -4.143887389780E-01  4.628408682384E-01  2.354241415447E-01
H72  4.143887389780E-01 -4.628408682384E-01 -2.354241415447E-01
H73 -4.854245241632E-01 -2.465788126308E-01  3.727316054291E-01
H74  4.854245241632E-01  2.465788126308E-01 -3.727316054291E-01
H75  4.258749723430E-01 -2.534890280194E-01 -4.737384931370E-01
H76 -4.258749723430E-01  2.534890280194E-01  4.737384931370E-01
H77  3.527696734554E-01 -4.408451230662E-01  4.814711300653E-01
H78 -3.527696734554E-01  4.408451230662E-01 -4.814711300653E-01
H79  1.921755986909E-01 -2.570883564972E-01 -4.803714462362E-01
H80 -1.921755986909E-01  2.570883564972E-01  4.803714462362E-01
H81  1.950893952157E-01  3.519457228845E-02  4.415163143132E-01
H82 -1.950893952157E-01 -3.519457228845E-02 -4.415163143132E-01
H83  3.563299621012E-01  5.013950059495E-02  3.478682861477E-01
H84 -3.563299621012E-01 -5.013950059495E-02 -3.478682861477E-01
H85  4.302382873372E-01  4.470326986175E-02  4.449044086331E-01
H86 -4.302382873372E-01 -4.470326986175E-02 -4.449044086331E-01
H87 -5.450291649389E-02 -3.240979474485E-01  2.864853738588E-01
H88  5.450291649389E-02  3.240979474485E-01 -2.864853738588E-01
H89 -7.138533497821E-02 -4.930513403485E-01  4.152541552620E-01
H90  7.138533497821E-02  4.930513403485E-01 -4.152541552620E-01
H91 -2.579311827545E-01 -3.240116381541E-01  4.286880753672E-01
H92  2.579311827545E-01  3.240116381541E-01 -4.286880753672E-01
H93 -6.507754103080E-02 -2.985013670497E-01  4.747696191864E-01
H94  6.507754103080E-02  2.985013670497E-01 -4.747696191864E-01
H95 -8.207118675449E-03  2.484778407531E-03  2.886163778262E-01
H96  8.207118675449E-03 -2.484778407531E-03 -2.886163778262E-01
H97 -6.093958390537E-02  4.115982940769E-03  3.983506728566E-01
H98  6.093958390537E-02 -4.115982940769E-03 -3.983506728566E-01
H99 -2.301694997871E-01 -4.308305953875E-02  3.407283250501E-01
H100  2.301694997871E-01  4.308305953875E-02 -3.407283250501E-01


#===END

data_OPT_STEP_16

_symmetry_space_group_name_H-M 'P 1'
_cell_length_a      7.39357435
_cell_length_b      7.56614016
_cell_length_c     16.34480842
_cell_angle_alpha   90.896974
_cell_angle_beta   79.373336
_cell_angle_gamma   84.408697

loop_
_atom_site_label
_atom_site_fract_x
_atom_site_fract_y
_atom_site_fract_z
SI1  2.448004598346E-01 -3.105355221769E-01  3.225325744189E-01
SI2 -2.448004598346E-01  3.105355221769E-01 -3.225325744189E-01
C3  4.456119334990E-01 -6.872130720372E-02  7.977914051983E-02
C4 -4.456119334990E-01  6.872130720372E-02 -7.977914051983E-02
C5  3.173088823976E-01  4.268663494082E-02  4.514683949006E-02
C6 -3.173088823976E-01 -4.268663494082E-02 -4.514683949006E-02
C7  1.350635853943E-01  8.474439938471E-02  8.733883523830E-02
C8 -1.350635853943E-01 -8.474439938471E-02 -8.733883523830E-02
C9  7.452423406458E-03  1.899875240230E-01  5.308341594166E-02
C10 -7.452423406458E-03 -1.899875240230E-01 -5.308341594166E-02
C11 -1.786195411528E-01  2.300228071146E-01  9.560165540889E-02
C12  1.786195411528E-01 -2.300228071146E-01 -9.560165540889E-02
C13 -3.034778886826E-01  3.283248244228E-01  5.933899454809E-02
C14  3.034778886826E-01 -3.283248244228E-01 -5.933899454809E-02
C15 -2.505817978525E-01  3.936109309312E-01 -2.169106082099E-02
C16  2.505817978525E-01 -3.936109309312E-01  2.169106082099E-02
C17 -7.472396743322E-02  3.593947225347E-01 -6.426637380591E-02
C18  7.472396743322E-02 -3.593947225347E-01  6.426637380591E-02
C19  6.094324598451E-02  2.561754138354E-01 -2.894630127617E-02
C20 -6.094324598451E-02 -2.561754138354E-01  2.894630127617E-02
C21  2.405025127043E-01  2.165223651441E-01 -7.101358803176E-02
C22 -2.405025127043E-01 -2.165223651441E-01  7.101358803176E-02
C23  3.718071538246E-01  1.116612022096E-01 -3.622432489247E-02
C24 -3.718071538246E-01 -1.116612022096E-01  3.622432489247E-02
C25  3.882253210777E-01 -1.427336005673E-01  1.576866595841E-01
C26 -3.882253210777E-01  1.427336005673E-01 -1.576866595841E-01
C27  3.354008775226E-01 -2.110847813378E-01  2.234274138240E-01
C28 -3.354008775226E-01  2.110847813378E-01 -2.234274138240E-01
C29  3.145257873543E-01  4.401276151881E-01  3.118799852273E-01
C30 -3.145257873543E-01 -4.401276151881E-01 -3.118799852273E-01
C31  2.271500246196E-01  3.544002561376E-01  2.456459481822E-01
C32 -2.271500246196E-01 -3.544002561376E-01 -2.456459481822E-01
C33 -4.750400080170E-01  4.015509734663E-01  2.933680630321E-01
C34  4.750400080170E-01 -4.015509734663E-01 -2.933680630321E-01
C35  3.673404841305E-01 -2.103735419542E-01  4.018403615174E-01
C36 -3.673404841305E-01  2.103735419542E-01 -4.018403615174E-01
C37  3.326807850010E-01 -2.956192028080E-01  4.863273827084E-01
C38 -3.326807850010E-01  2.956192028080E-01 -4.863273827084E-01
C39  3.332936692390E-01 -8.359548309386E-03  4.095184082789E-01
C40 -3.332936692390E-01  8.359548309386E-03 -4.095184082789E-01
C41 -1.708921467696E-02 -2.611449552130E-01  3.406101683408E-01
C42  1.708921467696E-02  2.611449552130E-01 -3.406101683408E-01
C43 -1.079518668626E-01 -3.492935455028E-01  4.187009396482E-01
C44  1.079518668626E-01  3.492935455028E-01 -4.187009396482E-01
C45 -8.345292952772E-02 -6.373321269277E-02  3.411537188985E-01
C46  8.345292952772E-02  6.373321269277E-02 -3.411537188985E-01
H47  9.306189330939E-02  2.855247992322E-02  1.475646091130E-01
H48 -9.306189330939E-02 -2.855247992322E-02 -1.475646091130E-01
H49 -2.191817729406E-01  1.761823584259E-01  1.566423113772E-01
H50  2.191817729406E-01 -1.761823584259E-01 -1.566423113772E-01
H51 -4.458060169093E-01  3.518200029307E-01  9.132525360106E-02
H52  4.458060169093E-01 -3.518200029307E-01 -9.132525360106E-02
H53 -3.528804579486E-01  4.701362662422E-01 -4.979696165944E-02
H54  3.528804579486E-01 -4.701362662422E-01  4.979696165944E-02
H55 -3.436959022549E-02  4.102834365116E-01 -1.259548508537E-01
H56  3.436959022549E-02 -4.102834365116E-01  1.259548508537E-01
H57  2.823073325551E-01  2.669351086099E-01 -1.327083763027E-01
H58 -2.823073325551E-01 -2.669351086099E-01  1.327083763027E-01
H59  2.615758530035E-01  3.850395506919E-01  3.724634853854E-01
H60 -2.615758530035E-01 -3.850395506919E-01 -3.724634853854E-01
H61  2.642485286892E-01  4.158885449159E-01  1.854916363939E-01
H62 -2.642485286892E-01 -4.158885449159E-01 -1.854916363939E-01
H63  7.596424111910E-02  3.670010871413E-01  2.618395181160E-01
H64 -7.596424111910E-02 -3.670010871413E-01 -2.618395181160E-01
H65  2.746037406588E-01  2.125239734895E-01  2.363098265757E-01
H66 -2.746037406588E-01 -2.125239734895E-01 -2.363098265757E-01
H67 -4.341950846548E-01  2.580895563407E-01  2.857644164324E-01
H68  4.341950846548E-01 -2.580895563407E-01 -2.857644164324E-01
H69 -4.113796463229E-01  4.511392874702E-01  3.433672461010E-01
H70  4.113796463229E-01 -4.511392874702E-01 -3.433672461010E-01
H71 -4.149037693931E-01  4.625887695964E-01  2.356261557630E-01
H72  4.149037693931E-01 -4.625887695964E-01 -2.356261557630E-01
H73 -4.865634853041E-01 -2.450389059375E-01  3.728070501021E-01
H74  4.865634853041E-01  2.450389059375E-01 -3.728070501021E-01
H75  4.248941350844E-01 -2.523792492476E-01 -4.736700728010E-01
H76 -4.248941350844E-01  2.523792492476E-01  4.736700728010E-01
H77  3.531275568947E-01 -4.407105731753E-01  4.812893735461E-01
H78 -3.531275568947E-01  4.407105731753E-01 -4.812893735461E-01
H79  1.912216442725E-01 -2.577912944266E-01 -4.803961569958E-01
H80 -1.912216442725E-01  2.577912944266E-01  4.803961569958E-01
H81  1.921872956666E-01  3.513970504696E-02  4.417324295167E-01
H82 -1.921872956666E-01 -3.513970504696E-02 -4.417324295167E-01
H83  3.537895668139E-01  5.141915478561E-02  3.484007544246E-01
H84 -3.537895668139E-01 -5.141915478561E-02 -3.484007544246E-01
H85  4.271153343527E-01  4.627685299389E-02  4.455921718068E-01
H86 -4.271153343527E-01 -4.627685299389E-02 -4.455921718068E-01
H87 -5.547499596181E-02 -3.251825956230E-01  2.862510049711E-01
H88  5.547499596181E-02  3.251825956230E-01 -2.862510049711E-01
H89 -7.245922637910E-02 -4.931978229701E-01  4.151298967798E-01
H90  7.245922637910E-02  4.931978229701E-01 -4.151298967798E-01
H91 -2.588993322496E-01 -3.237280065411E-01  4.286642299372E-01
H92  2.588993322496E-01  3.237280065411E-01 -4.286642299372E-01
H93 -6.540137027760E-02 -2.981257080599E-01  4.744680427064E-01
H94  6.540137027760E-02  2.981257080599E-01 -4.744680427064E-01
H95 -9.657775048576E-03  2.175630026640E-03  2.878691428831E-01
H96  9.657775048576E-03 -2.175630026640E-03 -2.878691428831E-01
H97 -6.295937421304E-02  4.877147417353E-03  3.975976376859E-01
H98  6.295937421304E-02 -4.877147417353E-03 -3.975976376859E-01
H99 -2.317719378375E-01 -4.385362495606E-02  3.398130882167E-01
H100  2.317719378375E-01  4.385362495606E-02 -3.398130882167E-01


#===END

data_OPT_STEP_17

_symmetry_space_group_name_H-M 'P 1'
_cell_length_a      7.37866194
_cell_length_b      7.57245822
_cell_length_c     16.33182459
_cell_angle_alpha   90.985596
_cell_angle_beta   79.434385
_cell_angle_gamma   84.474136

loop_
_atom_site_label
_atom_site_fract_x
_atom_site_fract_y
_atom_site_fract_z
SI1  2.427493784022E-01 -3.092034402530E-01  3.225837738774E-01
SI2 -2.427493784022E-01  3.092034402530E-01 -3.225837738774E-01
C3  4.453542787106E-01 -6.847617736911E-02  7.976811994191E-02
C4 -4.453542787106E-01  6.847617736911E-02 -7.976811994191E-02
C5  3.169801847243E-01  4.278429765021E-02  4.504280899459E-02
C6 -3.169801847243E-01 -4.278429765021E-02 -4.504280899459E-02
C7  1.345361936919E-01  8.531561577772E-02  8.719437124251E-02
C8 -1.345361936919E-01 -8.531561577772E-02 -8.719437124251E-02
C9  6.971948249164E-03  1.907631233858E-01  5.297548960050E-02
C10 -6.971948249164E-03 -1.907631233858E-01 -5.297548960050E-02
C11 -1.791763252847E-01  2.315344555230E-01  9.557127941563E-02
C12  1.791763252847E-01 -2.315344555230E-01 -9.557127941563E-02
C13 -3.040634203708E-01  3.300096938254E-01  5.939593134621E-02
C14  3.040634203708E-01 -3.300096938254E-01 -5.939593134621E-02
C15 -2.513995559047E-01  3.935080573482E-01 -2.204428335034E-02
C16  2.513995559047E-01 -3.935080573482E-01  2.204428335034E-02
C17 -7.530459934284E-02  3.590085821488E-01 -6.457566118350E-02
C18  7.530459934284E-02 -3.590085821488E-01  6.457566118350E-02
C19  6.067720287428E-02  2.566792525947E-01 -2.897844664101E-02
C20 -6.067720287428E-02 -2.566792525947E-01  2.897844664101E-02
C21  2.404207586095E-01  2.164700680957E-01 -7.106796727405E-02
C22 -2.404207586095E-01 -2.164700680957E-01  7.106796727405E-02
C23  3.717812133790E-01  1.116570118563E-01 -3.625000429313E-02
C24 -3.717812133790E-01 -1.116570118563E-01  3.625000429313E-02
C25  3.879304453275E-01 -1.416689891902E-01  1.578598011576E-01
C26 -3.879304453275E-01  1.416689891902E-01 -1.578598011576E-01
C27  3.344247996247E-01 -2.096721592728E-01  2.236289499869E-01
C28 -3.344247996247E-01  2.096721592728E-01 -2.236289499869E-01
C29  3.131554358269E-01  4.418594565318E-01  3.120539977997E-01
C30 -3.131554358269E-01 -4.418594565318E-01 -3.120539977997E-01
C31  2.261090269220E-01  3.550877569389E-01  2.457826869232E-01
C32 -2.261090269220E-01 -3.550877569389E-01 -2.457826869232E-01
C33 -4.760406405785E-01  4.037575285259E-01  2.938139465139E-01
C34  4.760406405785E-01 -4.037575285259E-01 -2.938139465139E-01
C35  3.640879933460E-01 -2.085475836071E-01  4.024944727348E-01
C36 -3.640879933460E-01  2.085475836071E-01 -4.024944727348E-01
C37  3.309987149052E-01 -2.952754060943E-01  4.867043279312E-01
C38 -3.309987149052E-01  2.952754060943E-01 -4.867043279312E-01
C39  3.268360674188E-01 -6.952688161003E-03  4.110445192686E-01
C40 -3.268360674188E-01  6.952688161003E-03 -4.110445192686E-01
C41 -1.963435734213E-02 -2.611554880019E-01  3.401617025176E-01
C42  1.963435734213E-02  2.611554880019E-01 -3.401617025176E-01
C43 -1.100533882593E-01 -3.488284626995E-01  4.184996841576E-01
C44  1.100533882593E-01  3.488284626995E-01 -4.184996841576E-01
C45 -8.741887427814E-02 -6.433777462827E-02  3.401526263815E-01
C46  8.741887427814E-02  6.433777462827E-02 -3.401526263815E-01
H47  9.232005768396E-02  2.942292206149E-02  1.473896877762E-01
H48 -9.232005768396E-02 -2.942292206149E-02 -1.473896877762E-01
H49 -2.198814494944E-01  1.778090193784E-01  1.564655323421E-01
H50  2.198814494944E-01 -1.778090193784E-01 -1.564655323421E-01
H51 -4.464021818132E-01  3.551503256887E-01  9.182748351011E-02
H52  4.464021818132E-01 -3.551503256887E-01 -9.182748351011E-02
H53 -3.539820461233E-01  4.693351433552E-01 -5.033373292365E-02
H54  3.539820461233E-01 -4.693351433552E-01  5.033373292365E-02
H55 -3.496489149569E-02  4.093464856362E-01 -1.262644490253E-01
H56  3.496489149569E-02 -4.093464856362E-01  1.262644490253E-01
H57  2.821448236319E-01  2.657544585480E-01 -1.330083645652E-01
H58 -2.821448236319E-01 -2.657544585480E-01  1.330083645652E-01
H59  2.600170464515E-01  3.873101740689E-01  3.727265114339E-01
H60 -2.600170464515E-01 -3.873101740689E-01 -3.727265114339E-01
H61  2.642671315859E-01  4.151174189460E-01  1.853419985816E-01
H62 -2.642671315859E-01 -4.151174189460E-01 -1.853419985816E-01
H63  7.458288718053E-02  3.682645049826E-01  2.615981767606E-01
H64 -7.458288718053E-02 -3.682645049826E-01 -2.615981767606E-01
H65  2.731335937099E-01  2.130253395688E-01  2.370949937499E-01
H66 -2.731335937099E-01 -2.130253395688E-01 -2.370949937499E-01
H67 -4.348911356228E-01  2.603846905298E-01  2.866188313338E-01
H68  4.348911356228E-01 -2.603846905298E-01 -2.866188313338E-01
H69 -4.124830118146E-01  4.544641228274E-01  3.437765534017E-01
H70  4.124830118146E-01 -4.544641228274E-01 -3.437765534017E-01
H71 -4.157967544922E-01  4.640047762109E-01  2.358865313129E-01
H72  4.157967544922E-01 -4.640047762109E-01 -2.358865313129E-01
H73 -4.893163595125E-01 -2.410821724025E-01  3.732228984728E-01
H74  4.893163595125E-01  2.410821724025E-01 -3.732228984728E-01
H75  4.225430436546E-01 -2.507798085041E-01 -4.730441970604E-01
H76 -4.225430436546E-01  2.507798085041E-01  4.730441970604E-01
H77  3.539836467423E-01 -4.402175293966E-01  4.810737266692E-01
H78 -3.539836467423E-01  4.402175293966E-01 -4.810737266692E-01
H79  1.888462506189E-01 -2.600228139606E-01 -4.798793697914E-01
H80 -1.888462506189E-01  2.600228139606E-01  4.798793697914E-01
H81  1.846315178311E-01  3.394878786656E-02  4.430172855145E-01
H82 -1.846315178311E-01 -3.394878786656E-02 -4.430172855145E-01
H83  3.471666650421E-01  5.405383629107E-02  3.502040899454E-01
H84 -3.471666650421E-01 -5.405383629107E-02 -3.502040899454E-01
H85  4.191069839323E-01  4.877670041055E-02  4.478754679787E-01
H86 -4.191069839323E-01 -4.877670041055E-02 -4.478754679787E-01
H87 -5.756100544215E-02 -3.264526306845E-01  2.858669497398E-01
H88  5.756100544215E-02  3.264526306845E-01 -2.858669497398E-01
H89 -7.470465727793E-02 -4.926340878576E-01  4.148971445959E-01
H90  7.470465727793E-02  4.926340878576E-01 -4.148971445959E-01
H91 -2.612813339875E-01 -3.230169374482E-01  4.288072549901E-01
H92  2.612813339875E-01  3.230169374482E-01 -4.288072549901E-01
H93 -6.664627092361E-02 -2.975863394603E-01  4.741752889475E-01
H94  6.664627092361E-02  2.975863394603E-01 -4.741752889475E-01
H95 -1.331063398667E-02  1.312118328759E-03  2.868400939149E-01
H96  1.331063398667E-02 -1.312118328759E-03 -2.868400939149E-01
H97 -6.839037199442E-02  5.532641022318E-03  3.966644950101E-01
H98  6.839037199442E-02 -5.532641022318E-03 -3.966644950101E-01
H99 -2.358545885272E-01 -4.591802309896E-02  3.382443536199E-01
H100  2.358545885272E-01  4.591802309896E-02 -3.382443536199E-01


#===END

data_OPT_STEP_18

_symmetry_space_group_name_H-M 'P 1'
_cell_length_a      7.34190781
_cell_length_b      7.51500282
_cell_length_c     16.35408960
_cell_angle_alpha   91.336182
_cell_angle_beta   79.562439
_cell_angle_gamma   84.868507

loop_
_atom_site_label
_atom_site_fract_x
_atom_site_fract_y
_atom_site_fract_z
SI1  2.401733731742E-01 -3.066566236009E-01  3.223961050200E-01
SI2 -2.401733731742E-01  3.066566236009E-01 -3.223961050200E-01
C3  4.456246064203E-01 -6.609485212099E-02  8.023844146271E-02
C4 -4.456246064203E-01  6.609485212099E-02 -8.023844146271E-02
C5  3.166499751638E-01  4.400124192178E-02  4.509272771698E-02
C6 -3.166499751638E-01 -4.400124192178E-02 -4.509272771698E-02
C7  1.338911950258E-01  8.797534594784E-02  8.724655925397E-02
C8 -1.338911950258E-01 -8.797534594784E-02 -8.724655925397E-02
C9  6.031331118848E-03  1.925242219098E-01  5.266588601201E-02
C10 -6.031331118848E-03 -1.925242219098E-01 -5.266588601201E-02
C11 -1.800748854383E-01  2.357255430594E-01  9.565326382455E-02
C12  1.800748854383E-01 -2.357255430594E-01 -9.565326382455E-02
C13 -3.052781740403E-01  3.333011109146E-01  5.924254435175E-02
C14  3.052781740403E-01 -3.333011109146E-01 -5.924254435175E-02
C15 -2.529346747993E-01  3.943363170874E-01 -2.257404075393E-02
C16  2.529346747993E-01 -3.943363170874E-01  2.257404075393E-02
C17 -7.690124819992E-02  3.574050128964E-01 -6.557050370929E-02
C18  7.690124819992E-02 -3.574050128964E-01  6.557050370929E-02
C19  5.961390167047E-02  2.562642828139E-01 -2.956380816387E-02
C20 -5.961390167047E-02 -2.562642828139E-01  2.956380816387E-02
C21  2.397221620996E-01  2.151656658213E-01 -7.150960457108E-02
C22 -2.397221620996E-01 -2.151656658213E-01  7.150960457108E-02
C23  3.712433489849E-01  1.103682254734E-01 -3.666534693942E-02
C24 -3.712433489849E-01 -1.103682254734E-01  3.666534693942E-02
C25  3.885404610728E-01 -1.379647697101E-01  1.585896614249E-01
C26 -3.885404610728E-01  1.379647697101E-01 -1.585896614249E-01
C27  3.338385211275E-01 -2.057425815659E-01  2.241454172195E-01
C28 -3.338385211275E-01  2.057425815659E-01 -2.241454172195E-01
C29  3.106609296584E-01  4.431436190688E-01  3.118023788798E-01
C30 -3.106609296584E-01 -4.431436190688E-01 -3.118023788798E-01
C31  2.237377596798E-01  3.539371185759E-01  2.456353981162E-01
C32 -2.237377596798E-01 -3.539371185759E-01 -2.456353981162E-01
C33 -4.778694467617E-01  4.052703181692E-01  2.940625177096E-01
C34  4.778694467617E-01 -4.052703181692E-01 -2.940625177096E-01
C35  3.602053699461E-01 -2.040774127322E-01  4.031089929466E-01
C36 -3.602053699461E-01  2.040774127322E-01 -4.031089929466E-01
C37  3.294034693798E-01 -2.922648511985E-01  4.865506245870E-01
C38 -3.294034693798E-01  2.922648511985E-01 -4.865506245870E-01
C39  3.191914019156E-01 -2.310401780455E-03  4.127273431051E-01
C40 -3.191914019156E-01  2.310401780455E-03 -4.127273431051E-01
C41 -2.318530859639E-02 -2.610172908593E-01  3.393238948411E-01
C42  2.318530859639E-02  2.610172908593E-01 -3.393238948411E-01
C43 -1.127149223566E-01 -3.497499296843E-01  4.175531235635E-01
C44  1.127149223566E-01  3.497499296843E-01 -4.175531235635E-01
C45 -9.313679802348E-02 -6.375282271436E-02  3.390920005286E-01
C46  9.313679802348E-02  6.375282271436E-02 -3.390920005286E-01
H47  9.164490344805E-02  3.425169036765E-02  1.480063644165E-01
H48 -9.164490344805E-02 -3.425169036765E-02 -1.480063644165E-01
H49 -2.205822633325E-01  1.844054465968E-01  1.570839389594E-01
H50  2.205822633325E-01 -1.844054465968E-01 -1.570839389594E-01
H51 -4.478096166188E-01  3.609059699392E-01  9.222727517364E-02
H52  4.478096166188E-01 -3.609059699392E-01 -9.222727517364E-02
H53 -3.561537075275E-01  4.691336333184E-01 -5.109743821398E-02
H54  3.561537075275E-01 -4.691336333184E-01  5.109743821398E-02
H55 -3.700333693770E-02  4.048445012963E-01 -1.279270214123E-01
H56  3.700333693770E-02 -4.048445012963E-01  1.279270214123E-01
H57  2.815057060430E-01  2.633780321492E-01 -1.334733071895E-01
H58 -2.815057060430E-01 -2.633780321492E-01  1.334733071895E-01
H59  2.568100315836E-01  3.891737577717E-01  3.724067472438E-01
H60 -2.568100315836E-01 -3.891737577717E-01 -3.724067472438E-01
H61  2.638654042626E-01  4.120580640259E-01  1.850029712452E-01
H62 -2.638654042626E-01 -4.120580640259E-01 -1.850029712452E-01
H63  7.150397824397E-02  3.678208685431E-01  2.607506376286E-01
H64 -7.150397824397E-02 -3.678208685431E-01 -2.607506376286E-01
H65  2.697074355680E-01  2.106788844626E-01  2.379219553822E-01
H66 -2.697074355680E-01 -2.106788844626E-01 -2.379219553822E-01
H67 -4.370064284767E-01  2.608935018761E-01  2.875747676735E-01
H68  4.370064284767E-01 -2.608935018761E-01 -2.875747676735E-01
H69 -4.140837020704E-01  4.583480680000E-01  3.437799326587E-01
H70  4.140837020704E-01 -4.583480680000E-01 -3.437799326587E-01
H71 -4.170671347777E-01  4.643715250578E-01  2.360079115117E-01
H72  4.170671347777E-01 -4.643715250578E-01 -2.360079115117E-01
H73 -4.927387093929E-01 -2.336519239928E-01  3.736796205116E-01
H74  4.927387093929E-01  2.336519239928E-01 -3.736796205116E-01
H75  4.202135940629E-01 -2.449020712944E-01 -4.729555173798E-01
H76 -4.202135940629E-01  2.449020712944E-01  4.729555173798E-01
H77  3.557038256097E-01 -4.377708904297E-01  4.800572543169E-01
H78 -3.557038256097E-01  4.377708904297E-01 -4.800572543169E-01
H79  1.865475261752E-01 -2.604377852213E-01 -4.801430561164E-01
H80 -1.865475261752E-01  2.604377852213E-01  4.801430561164E-01
H81  1.754230587650E-01  3.520620010934E-02  4.433029115486E-01
H82 -1.754230587650E-01 -3.520620010934E-02 -4.433029115486E-01
H83  3.408184621624E-01  5.990604573654E-02  3.526091395308E-01
H84 -3.408184621624E-01 -5.990604573654E-02 -3.526091395308E-01
H85  4.083119174907E-01  5.582824816535E-02  4.512272881823E-01
H86 -4.083119174907E-01 -5.582824816535E-02 -4.512272881823E-01
H87 -6.080057218101E-02 -3.284103460775E-01  2.851511584435E-01
H88  6.080057218101E-02  3.284103460775E-01 -2.851511584435E-01
H89 -7.772624837286E-02 -4.944685620990E-01  4.133539456639E-01
H90  7.772624837286E-02  4.944685620990E-01 -4.133539456639E-01
H91 -2.644910066055E-01 -3.235625279774E-01  4.285553302780E-01
H92  2.644910066055E-01  3.235625279774E-01 -4.285553302780E-01
H93 -6.758298719882E-02 -2.984632398675E-01  4.730571683000E-01
H94  6.758298719882E-02  2.984632398675E-01 -4.730571683000E-01
H95 -1.837386192314E-02  2.658925422046E-03  2.861568018893E-01
H96  1.837386192314E-02 -2.658925422046E-03 -2.861568018893E-01
H97 -7.640465649630E-02  8.225319686345E-03  3.957634489420E-01
H98  7.640465649630E-02 -8.225319686345E-03 -3.957634489420E-01
H99 -2.418260233828E-01 -4.785065066694E-02  3.362531970072E-01
H100  2.418260233828E-01  4.785065066694E-02 -3.362531970072E-01


#===END

data_OPT_STEP_19

_symmetry_space_group_name_H-M 'P 1'
_cell_length_a      7.32593393
_cell_length_b      7.47722403
_cell_length_c     16.37115559
_cell_angle_alpha   91.408204
_cell_angle_beta   79.595151
_cell_angle_gamma   84.984727

loop_
_atom_site_label
_atom_site_fract_x
_atom_site_fract_y
_atom_site_fract_z
SI1  2.364292085916E-01 -3.041589823518E-01  3.226072267082E-01
SI2 -2.364292085916E-01  3.041589823518E-01 -3.226072267082E-01
C3  4.459522656759E-01 -6.418180053321E-02  8.072613072443E-02
C4 -4.459522656759E-01  6.418180053321E-02 -8.072613072443E-02
C5  3.167228569108E-01  4.527595137485E-02  4.518914130846E-02
C6 -3.167228569108E-01 -4.527595137485E-02 -4.518914130846E-02
C7  1.340123822171E-01  9.043216356012E-02  8.748009165055E-02
C8 -1.340123822171E-01 -9.043216356012E-02 -8.748009165055E-02
C9  5.770926527964E-03  1.941969354812E-01  5.256585992200E-02
C10 -5.770926527964E-03 -1.941969354812E-01 -5.256585992200E-02
C11 -1.803070291580E-01  2.381298058865E-01  9.564714823260E-02
C12  1.803070291580E-01 -2.381298058865E-01 -9.564714823260E-02
C13 -3.058424062746E-01  3.353978896614E-01  5.913073488518E-02
C14  3.058424062746E-01 -3.353978896614E-01 -5.913073488518E-02
C15 -2.539462795685E-01  3.951211617450E-01 -2.293798590303E-02
C16  2.539462795685E-01 -3.951211617450E-01  2.293798590303E-02
C17 -7.802490065288E-02  3.569833562805E-01 -6.620326071915E-02
C18  7.802490065288E-02 -3.569833562805E-01  6.620326071915E-02
C19  5.885769968817E-02  2.560377821631E-01 -3.011183132248E-02
C20 -5.885769968817E-02 -2.560377821631E-01  3.011183132248E-02
C21  2.387235915166E-01  2.130230483184E-01 -7.244545799946E-02
C22 -2.387235915166E-01 -2.130230483184E-01  7.244545799946E-02
C23  3.708554496880E-01  1.095191099952E-01 -3.711012652431E-02
C24 -3.708554496881E-01 -1.095191099952E-01  3.711012652431E-02
C25  3.885672073900E-01 -1.352084682272E-01  1.592620439441E-01
C26 -3.885672073900E-01  1.352084682272E-01 -1.592620439441E-01
C27  3.324818207186E-01 -2.027407302488E-01  2.247417022381E-01
C28 -3.324818207186E-01  2.027407302488E-01 -2.247417022381E-01
C29  3.076809397910E-01  4.446126608677E-01  3.126132880905E-01
C30 -3.076809397910E-01 -4.446126608677E-01 -3.126132880905E-01
C31  2.214668192537E-01  3.530410468154E-01  2.466340319415E-01
C32 -2.214668192537E-01 -3.530410468154E-01 -2.466340319415E-01
C33 -4.804613376802E-01  4.071133524020E-01  2.954182948678E-01
C34  4.804613376802E-01 -4.071133524020E-01 -2.954182948678E-01
C35  3.539728076901E-01 -2.001099215056E-01  4.042390837026E-01
C36 -3.539728076901E-01  2.001099215056E-01 -4.042390837026E-01
C37  3.257273924021E-01 -2.917865692390E-01  4.869340391026E-01
C38 -3.257273924021E-01  2.917865692390E-01 -4.869340391026E-01
C39  3.068256370159E-01  2.420667619340E-03  4.156157555282E-01
C40 -3.068256370159E-01 -2.420667619340E-03 -4.156157555282E-01
C41 -2.753924809093E-02 -2.599551221163E-01  3.383489340527E-01
C42  2.753924809093E-02  2.599551221163E-01 -3.383489340527E-01
C43 -1.168725874202E-01 -3.468422664537E-01  4.172322698074E-01
C44  1.168725874202E-01  3.468422664537E-01 -4.172322698074E-01
C45 -9.917482218644E-02 -6.246012402927E-02  3.362256022942E-01
C46  9.917482218644E-02  6.246012402927E-02 -3.362256022942E-01
H47  9.201399591397E-02  3.801158415037E-02  1.486236138738E-01
H48 -9.201399591397E-02 -3.801158415037E-02 -1.486236138738E-01
H49 -2.205998692028E-01  1.870966668924E-01  1.570436615631E-01
H50  2.205998692028E-01 -1.870966668924E-01 -1.570436615631E-01
H51 -4.483776776394E-01  3.636511988114E-01  9.220577215511E-02
H52  4.483776776394E-01 -3.636511988114E-01 -9.220577215511E-02
H53 -3.576246283948E-01  4.695668304284E-01 -5.149417527218E-02
H54  3.576246283948E-01 -4.695668304284E-01  5.149417527218E-02
H55 -3.857924071927E-02  4.030819412586E-01 -1.288696322317E-01
H56  3.857924071927E-02 -4.030819412586E-01  1.288696322317E-01
H57  2.798732045465E-01  2.588620514952E-01 -1.350398541031E-01
H58 -2.798732045465E-01 -2.588620514952E-01  1.350398541031E-01
H59  2.533261869929E-01  3.913615130541E-01  3.733397173254E-01
H60 -2.533261869929E-01 -3.913615130541E-01 -3.733397173254E-01
H61  2.627268864008E-01  4.096054349476E-01  1.856618116866E-01
H62 -2.627268864008E-01 -4.096054349476E-01 -1.856618116866E-01
H63  6.890439377864E-02  3.672157498175E-01  2.612417173147E-01
H64 -6.890439377864E-02 -3.672157498175E-01 -2.612417173147E-01
H65  2.672325871299E-01  2.089126676288E-01  2.398927168928E-01
H66 -2.672325871299E-01 -2.089126676288E-01 -2.398927168928E-01
H67 -4.393031985731E-01  2.620172810017E-01  2.896518723446E-01
H68  4.393031985731E-01 -2.620172810017E-01 -2.896518723446E-01
H69 -4.170904881348E-01  4.620516023887E-01  3.449948416125E-01
H70  4.170904881348E-01 -4.620516023887E-01 -3.449948416125E-01
H71 -4.192277562706E-01  4.654139796543E-01  2.371977283483E-01
H72  4.192277562706E-01 -4.654139796543E-01 -2.371977283483E-01
H73 -4.980601749337E-01 -2.257668766706E-01  3.744955637314E-01
H74  4.980601749337E-01  2.257668766706E-01 -3.744955637314E-01
H75  4.146762210949E-01 -2.416036344961E-01 -4.721590004223E-01
H76 -4.146762210949E-01  2.416036344961E-01  4.721590004223E-01
H77  3.568368069284E-01 -4.379250408749E-01  4.795552691611E-01
H78 -3.568368069284E-01  4.379250408749E-01 -4.795552691611E-01
H79  1.816242118101E-01 -2.645662628765E-01 -4.796924941880E-01
H80 -1.816242118101E-01  2.645662628765E-01  4.796924941880E-01
H81  1.612946258674E-01  3.540091887607E-02  4.459673747977E-01
H82 -1.612946258674E-01 -3.540091887607E-02 -4.459673747977E-01
H83  3.277631395283E-01  6.768958575265E-02  3.561648296899E-01
H84 -3.277631395283E-01 -6.768958575265E-02 -3.561648296899E-01
H85  3.931239382501E-01  6.273096192959E-02  4.552175683904E-01
H86 -3.931239382501E-01 -6.273096192959E-02 -4.552175683904E-01
H87 -6.422220998395E-02 -3.308363857459E-01  2.846946436975E-01
H88  6.422220998395E-02  3.308363857459E-01 -2.846946436975E-01
H89 -8.236694748397E-02 -4.922230139119E-01  4.137061663112E-01
H90  8.236694748397E-02  4.922230139119E-01 -4.137061663112E-01
H91 -2.689482213491E-01 -3.203320635019E-01  4.287921207833E-01
H92  2.689482213491E-01  3.203320635019E-01 -4.287921207833E-01
H93 -7.047034936687E-02 -2.939009033419E-01  4.721463113666E-01
H94  7.047034936687E-02  2.939009033419E-01 -4.721463113666E-01
H95 -2.390980106022E-02  2.773003796843E-03  2.829620716390E-01
H96  2.390980106022E-02 -2.773003796843E-03 -2.829620716390E-01
H97 -8.442264944502E-02  1.301724780433E-02  3.924313424996E-01
H98  8.442264944502E-02 -1.301724780433E-02 -3.924313424996E-01
H99 -2.478721108290E-01 -4.865927198438E-02  3.325680452770E-01
H100  2.478721108290E-01  4.865927198438E-02 -3.325680452770E-01


#===END

data_OPT_STEP_20

_symmetry_space_group_name_H-M 'P 1'
_cell_length_a      7.28829383
_cell_length_b      7.53128471
_cell_length_c     16.37402559
_cell_angle_alpha   91.239350
_cell_angle_beta   79.634070
_cell_angle_gamma   85.145328

loop_
_atom_site_label
_atom_site_fract_x
_atom_site_fract_y
_atom_site_fract_z
SI1  2.345050970305E-01 -3.000751819127E-01  3.231390971991E-01
SI2 -2.345050970305E-01  3.000751819127E-01 -3.231390971991E-01
C3  4.459319550964E-01 -6.209960383301E-02  8.119948668092E-02
C4 -4.459319550964E-01  6.209960383301E-02 -8.119948668092E-02
C5  3.161821372960E-01  4.579114529018E-02  4.533377041204E-02
C6 -3.161821372960E-01 -4.579114529018E-02 -4.533377041204E-02
C7  1.331514566033E-01  9.240684783921E-02  8.798788627192E-02
C8 -1.331514566033E-01 -9.240684783921E-02 -8.798788627192E-02
C9  4.511020552328E-03  1.947820155729E-01  5.261733654100E-02
C10 -4.511020552328E-03 -1.947820155729E-01 -5.261733654100E-02
C11 -1.824185630004E-01  2.383300368503E-01  9.528423585193E-02
C12  1.824185630004E-01 -2.383300368503E-01 -9.528423585193E-02
C13 -3.076510553320E-01  3.362422090935E-01  5.877206367332E-02
C14  3.076510553320E-01 -3.362422090935E-01 -5.877206367332E-02
C15 -2.547919691804E-01  3.967108138170E-01 -2.280153296050E-02
C16  2.547919691804E-01 -3.967108138170E-01  2.280153296050E-02
C17 -7.830068118416E-02  3.579415706139E-01 -6.596485731823E-02
C18  7.830068118416E-02 -3.579415706139E-01  6.596485731823E-02
C19  5.785127972515E-02  2.547013211137E-01 -3.052444868193E-02
C20 -5.785127972515E-02 -2.547013211137E-01  3.052444868193E-02
C21  2.374213585533E-01  2.084776995067E-01 -7.366360097322E-02
C22 -2.374213585533E-01 -2.084776995067E-01  7.366360097322E-02
C23  3.702247740129E-01  1.072742889681E-01 -3.766024870466E-02
C24 -3.702247740129E-01 -1.072742889681E-01  3.766024870466E-02
C25  3.888062163637E-01 -1.316339040795E-01  1.600715546283E-01
C26 -3.888062163637E-01  1.316339040795E-01 -1.600715546283E-01
C27  3.318197603181E-01 -1.982443219928E-01  2.256039259874E-01
C28 -3.318197603181E-01  1.982443219928E-01 -2.256039259874E-01
C29  3.065906951296E-01  4.507420222984E-01  3.134647897844E-01
C30 -3.065906951296E-01 -4.507420222984E-01 -3.134647897844E-01
C31  2.201349196184E-01  3.586948484627E-01  2.476566297995E-01
C32 -2.201349196184E-01 -3.586948484627E-01 -2.476566297995E-01
C33 -4.805999862651E-01  4.137648116866E-01  2.965748936061E-01
C34  4.805999862651E-01 -4.137648116866E-01 -2.965748936061E-01
C35  3.505364793550E-01 -1.956187504906E-01  4.052235079646E-01
C36 -3.505364793550E-01  1.956187504906E-01 -4.052235079646E-01
C37  3.255549272399E-01 -2.890584215838E-01  4.873488898495E-01
C38 -3.255549272399E-01  2.890584215838E-01 -4.873488898495E-01
C39  2.983812141050E-01  4.429218372283E-03  4.176341180195E-01
C40 -2.983812141050E-01 -4.429218372283E-03 -4.176341180195E-01
C41 -3.064635610813E-02 -2.592789392207E-01  3.382032370437E-01
C42  3.064635610813E-02  2.592789392207E-01 -3.382032370437E-01
C43 -1.193891752019E-01 -3.487612549928E-01  4.164444380563E-01
C44  1.193891752019E-01  3.487612549928E-01 -4.164444380563E-01
C45 -1.048604702475E-01 -6.416245961247E-02  3.366462969311E-01
C46  1.048604702475E-01  6.416245961247E-02 -3.366462969311E-01
H47  9.084892724049E-02  4.105886331159E-02  1.493429075452E-01
H48 -9.084892724049E-02 -4.105886331159E-02 -1.493429075452E-01
H49 -2.234909889911E-01  1.868925508914E-01  1.563094928541E-01
H50  2.234909889911E-01 -1.868925508914E-01 -1.563094928541E-01
H51 -4.506946961711E-01  3.659117855160E-01  9.171072152083E-02
H52  4.506946961711E-01 -3.659117855160E-01 -9.171072152083E-02
H53 -3.585483542233E-01  4.713988761791E-01 -5.126649030585E-02
H54  3.585483542233E-01 -4.713988761791E-01  5.126649030585E-02
H55 -3.827803798859E-02  4.031697412598E-01 -1.286634639112E-01
H56  3.827803798859E-02 -4.031697412598E-01  1.286634639112E-01
H57  2.783073341668E-01  2.516758877690E-01 -1.369000191100E-01
H58 -2.783073341668E-01 -2.516758877690E-01  1.369000191100E-01
H59  2.517432366668E-01  3.982203395866E-01  3.743468324251E-01
H60 -2.517432366668E-01 -3.982203395866E-01 -3.743468324251E-01
H61  2.610501284303E-01  4.146790210773E-01  1.866923118671E-01
H62 -2.610501284303E-01 -4.146790210773E-01 -1.866923118671E-01
H63  6.693017925359E-02  3.712605158356E-01  2.621903701613E-01
H64 -6.693017925359E-02 -3.712605158356E-01 -2.621903701613E-01
H65  2.667082176922E-01  2.162135298604E-01  2.411075295432E-01
H66 -2.667082176922E-01 -2.162135298604E-01 -2.411075295432E-01
H67 -4.397208772459E-01  2.698308732045E-01  2.914888417533E-01
H68  4.397208772459E-01 -2.698308732045E-01 -2.914888417533E-01
H69 -4.168307489895E-01  4.691752414477E-01  3.459275940405E-01
H70  4.168307489895E-01 -4.691752414477E-01 -3.459275940405E-01
H71 -4.187879492141E-01  4.707303343539E-01  2.380850987439E-01
H72  4.187879492141E-01 -4.707303343539E-01 -2.380850987439E-01
H73  4.990730327358E-01 -2.168852789952E-01  3.751416507382E-01
H74 -4.990730327358E-01  2.168852789952E-01 -3.751416507382E-01
H75  4.147426915842E-01 -2.384132577486E-01 -4.717417180943E-01
H76 -4.147426915842E-01  2.384132577486E-01  4.717417180943E-01
H77  3.592063240623E-01 -4.336185127848E-01  4.789644235826E-01
H78 -3.592063240623E-01  4.336185127848E-01 -4.789644235826E-01
H79  1.811979998647E-01 -2.653983306264E-01 -4.790860083480E-01
H80 -1.811979998647E-01  2.653983306264E-01  4.790860083480E-01
H81  1.512382487426E-01  3.266403952671E-02  4.470406252019E-01
H82 -1.512382487426E-01 -3.266403952671E-02 -4.470406252019E-01
H83  3.194405887484E-01  7.179823581765E-02  3.587364386648E-01
H84 -3.194405887484E-01 -7.179823581765E-02 -3.587364386648E-01
H85  3.818700848130E-01  6.541062241227E-02  4.586246330764E-01
H86 -3.818700848130E-01 -6.541062241227E-02 -4.586246330764E-01
H87 -6.627607132004E-02 -3.290725683405E-01  2.842041675693E-01
H88  6.627607132004E-02  3.290725683405E-01 -2.842041675693E-01
H89 -8.415775013019E-02 -4.929095484582E-01  4.118031492273E-01
H90  8.415775013019E-02  4.929095484582E-01 -4.118031492273E-01
H91 -2.720488388336E-01 -3.229408209766E-01  4.283690816904E-01
H92  2.720488388336E-01  3.229408209766E-01 -4.283690816904E-01
H93 -7.250445268104E-02 -2.983995217126E-01  4.716342938458E-01
H94  7.250445268104E-02  2.983995217126E-01 -4.716342938458E-01
H95 -2.816520883581E-02  2.784868771642E-03  2.842766256056E-01
H96  2.816520883581E-02 -2.784868771642E-03 -2.842766256056E-01
H97 -9.363224628157E-02  9.853500875709E-03  3.935787993817E-01
H98  9.363224628157E-02 -9.853500875709E-03 -3.935787993817E-01
H99 -2.535666780678E-01 -5.260251921110E-02  3.315402622003E-01
H100  2.535666780678E-01  5.260251921110E-02 -3.315402622003E-01


#===END

data_OPT_STEP_21

_symmetry_space_group_name_H-M 'P 1'
_cell_length_a      7.31262678
_cell_length_b      7.48768814
_cell_length_c     16.33767565
_cell_angle_alpha   91.486350
_cell_angle_beta   79.729747
_cell_angle_gamma   85.098052

loop_
_atom_site_label
_atom_site_fract_x
_atom_site_fract_y
_atom_site_fract_z
SI1  2.340763538776E-01 -3.036755179769E-01  3.225570655934E-01
SI2 -2.340763538776E-01  3.036755179769E-01 -3.225570655934E-01
C3  4.452086339223E-01 -6.639829335104E-02  8.002880479909E-02
C4 -4.452086339223E-01  6.639829335104E-02 -8.002880479909E-02
C5  3.165026558124E-01  4.460716500287E-02  4.496693018753E-02
C6 -3.165026558124E-01 -4.460716500287E-02 -4.496693018753E-02
C7  1.333635553316E-01  8.814695646040E-02  8.671690950786E-02
C8 -1.333635553316E-01 -8.814695646040E-02 -8.671690950786E-02
C9  5.664631084581E-03  1.942157833682E-01  5.252245622280E-02
C10 -5.664631084581E-03 -1.942157833682E-01 -5.252245622280E-02
C11 -1.802666895229E-01  2.390749271672E-01  9.589374642958E-02
C12  1.802666895229E-01 -2.390749271672E-01 -9.589374642958E-02
C13 -3.059916852994E-01  3.360671423167E-01  5.924062893813E-02
C14  3.059916852994E-01 -3.360671423167E-01 -5.924062893813E-02
C15 -2.545015575995E-01  3.938600265111E-01 -2.353354972131E-02
C16  2.545015575995E-01 -3.938600265111E-01  2.353354972131E-02
C17 -7.847023305811E-02  3.559233597934E-01 -6.669936290615E-02
C18  7.847023305811E-02 -3.559233597934E-01  6.669936290615E-02
C19  5.904828733210E-02  2.571018941382E-01 -2.985739349879E-02
C20 -5.904828733210E-02 -2.571018941382E-01  2.985739349879E-02
C21  2.401748180475E-01  2.181010897130E-01 -7.091043469596E-02
C22 -2.401748180475E-01 -2.181010897130E-01  7.091043469596E-02
C23  3.717364086118E-01  1.124612497813E-01 -3.622156758745E-02
C24 -3.717364086118E-01 -1.124612497813E-01  3.622156758745E-02
C25  3.876125683735E-01 -1.365694837240E-01  1.587733074476E-01
C26 -3.876125683735E-01  1.365694837240E-01 -1.587733074476E-01
C27  3.309780131712E-01 -2.032817724034E-01  2.245004932848E-01
C28 -3.309780131712E-01  2.032817724034E-01 -2.245004932848E-01
C29  3.063746747264E-01  4.454811471052E-01  3.133348323471E-01
C30 -3.063746747264E-01 -4.454811471052E-01 -3.133348323471E-01
C31  2.201366872853E-01  3.518357012651E-01  2.474630873347E-01
C32 -2.201366872853E-01 -3.518357012651E-01 -2.474630873347E-01
C33 -4.813651946374E-01  4.092040086785E-01  2.963553805697E-01
C34  4.813651946374E-01 -4.092040086785E-01 -2.963553805697E-01
C35  3.503133099775E-01 -1.982231740331E-01  4.047780059220E-01
C36 -3.503133099775E-01  1.982231740331E-01 -4.047780059220E-01
C37  3.238570453410E-01 -2.916472087322E-01  4.873305378757E-01
C38 -3.238570453410E-01  2.916472087322E-01 -4.873305378757E-01
C39  2.996212473036E-01  4.166078775164E-03  4.170899811485E-01
C40 -2.996212473036E-01 -4.166078775164E-03 -4.170899811485E-01
C41 -3.028765208601E-02 -2.608772917699E-01  3.373981348423E-01
C42  3.028765208601E-02  2.608772917699E-01 -3.373981348423E-01
C43 -1.195353405635E-01 -3.458335317596E-01  4.168947973166E-01
C44  1.195353405635E-01  3.458335317596E-01 -4.168947973166E-01
C45 -1.028660516751E-01 -6.406787881828E-02  3.338499542622E-01
C46  1.028660516751E-01  6.406787881828E-02 -3.338499542622E-01
H47  9.121185970480E-02  3.504312078520E-02  1.475688301087E-01
H48 -9.121185970480E-02 -3.504312078520E-02 -1.475688301087E-01
H49 -2.197042357600E-01  1.922982557095E-01  1.589395938172E-01
H50  2.197042357600E-01 -1.922982557095E-01 -1.589395938172E-01
H51 -4.483664304173E-01  3.646786705612E-01  9.244535393336E-02
H52  4.483664304173E-01 -3.646786705612E-01 -9.244535393336E-02
H53 -3.580007063231E-01  4.689692362746E-01 -5.189056123485E-02
H54  3.580007063231E-01 -4.689692362746E-01  5.189056123485E-02
H55 -3.908980817934E-02  4.021836685081E-01 -1.292976715173E-01
H56  3.908980817934E-02 -4.021836685081E-01  1.292976715173E-01
H57  2.823928544819E-01  2.675265752135E-01 -1.323870744090E-01
H58 -2.823928544819E-01 -2.675265752135E-01  1.323870744090E-01
H59  2.522404171855E-01  3.931591040492E-01  3.744093273442E-01
H60 -2.522404171855E-01 -3.931591040492E-01 -3.744093273442E-01
H61  2.623973764029E-01  4.064178690127E-01  1.858220155496E-01
H62 -2.623973764029E-01 -4.064178690127E-01 -1.858220155496E-01
H63  6.728203723309E-02  3.666581091358E-01  2.618179126139E-01
H64 -6.728203723309E-02 -3.666581091358E-01 -2.618179126139E-01
H65  2.652361974755E-01  2.072557858928E-01  2.417289964095E-01
H66 -2.652361974755E-01 -2.072557858928E-01 -2.417289964095E-01
H67 -4.395656490283E-01  2.642658822573E-01  2.913086006725E-01
H68  4.395656490283E-01 -2.642658822573E-01 -2.913086006725E-01
H69 -4.180854422448E-01  4.660739969913E-01  3.458490597326E-01
H70  4.180854422448E-01 -4.660739969913E-01 -3.458490597326E-01
H71 -4.203635622513E-01  4.664145266375E-01  2.377139832504E-01
H72  4.203635622513E-01 -4.664145266375E-01 -2.377139832504E-01
H73  4.987610502900E-01 -2.213939170925E-01  3.748264295105E-01
H74 -4.987610502900E-01  2.213939170925E-01 -3.748264295105E-01
H75  4.115917193810E-01 -2.395412738304E-01 -4.714087739051E-01
H76 -4.115917193810E-01  2.395412738304E-01  4.714087739051E-01
H77  3.581545523047E-01 -4.375220528642E-01  4.796080330610E-01
H78 -3.581545523047E-01  4.375220528642E-01 -4.796080330610E-01
H79  1.787898672964E-01 -2.677890876925E-01 -4.791988988257E-01
H80 -1.787898672964E-01  2.677890876925E-01  4.791988988257E-01
H81  1.537800795096E-01  3.457362151658E-02  4.484159407541E-01
H82 -1.537800795096E-01 -3.457362151658E-02 -4.484159407541E-01
H83  3.176374640033E-01  7.116670498169E-02  3.577584587969E-01
H84 -3.176374640033E-01 -7.116670498169E-02 -3.577584587969E-01
H85  3.863036200652E-01  6.514002600304E-02  4.563619012045E-01
H86 -3.863036200652E-01 -6.514002600304E-02 -4.563619012045E-01
H87 -6.628656663705E-02 -3.340213503061E-01  2.839244486271E-01
H88  6.628656663705E-02  3.340213503061E-01 -2.839244486271E-01
H89 -8.576930926902E-02 -4.910147316520E-01  4.138789615299E-01
H90  8.576930926902E-02  4.910147316520E-01 -4.138789615299E-01
H91 -2.718160394627E-01 -3.192600049049E-01  4.287148235441E-01
H92  2.718160394627E-01  3.192600049049E-01 -4.287148235441E-01
H93 -7.194108409354E-02 -2.919559949522E-01  4.715450569744E-01
H94  7.194108409354E-02  2.919559949522E-01 -4.715450569744E-01
H95 -2.716568819295E-02  1.414129567933E-04  2.803417386935E-01
H96  2.716568819295E-02 -1.414129567933E-04 -2.803417386935E-01
H97 -8.942644643552E-02  1.328209941041E-02  3.899115273906E-01
H98  8.942644643552E-02 -1.328209941041E-02 -3.899115273906E-01
H99 -2.514690722543E-01 -5.162287791422E-02  3.294839578391E-01
H100  2.514690722543E-01  5.162287791422E-02 -3.294839578391E-01


#===END

data_OPT_STEP_22

_symmetry_space_group_name_H-M 'P 1'
_cell_length_a      7.29310564
_cell_length_b      7.52484008
_cell_length_c     16.36686666
_cell_angle_alpha   91.283623
_cell_angle_beta   79.653626
_cell_angle_gamma   85.149402

loop_
_atom_site_label
_atom_site_fract_x
_atom_site_fract_y
_atom_site_fract_z
SI1  2.343895023687E-01 -3.006354780266E-01  3.230483595799E-01
SI2 -2.343895023687E-01  3.006354780266E-01 -3.230483595799E-01
C3  4.457068645985E-01 -6.317958084903E-02  8.086234354565E-02
C4 -4.457068645985E-01  6.317958084903E-02 -8.086234354565E-02
C5  3.162591278292E-01  4.551441803954E-02  4.523055157202E-02
C6 -3.162591278292E-01 -4.551441803954E-02 -4.523055157202E-02
C7  1.330854614723E-01  9.087525909304E-02  8.749899363904E-02
C8 -1.330854614723E-01 -9.087525909304E-02 -8.749899363904E-02
C9  4.817898259163E-03  1.946151091300E-01  5.258245001525E-02
C10 -4.817898259163E-03 -1.946151091300E-01 -5.258245001525E-02
C11 -1.818801268292E-01  2.384915542143E-01  9.543992751269E-02
C12  1.818801268292E-01 -2.384915542143E-01 -9.543992751269E-02
C13 -3.072137905211E-01  3.361908652819E-01  5.890458405776E-02
C14  3.072137905211E-01 -3.361908652819E-01 -5.890458405776E-02
C15 -2.547004450017E-01  3.956637825460E-01 -2.311503703936E-02
C16  2.547004450017E-01 -3.956637825460E-01  2.311503703936E-02
C17 -7.834579583496E-02  3.569920540286E-01 -6.631548383744E-02
C18  7.834579583496E-02 -3.569920540286E-01  6.631548383744E-02
C19  5.826964644733E-02  2.554831799382E-01 -3.029666570511E-02
C20 -5.826964644733E-02 -2.554831799382E-01  3.029666570511E-02
C21  2.384515391424E-01  2.118390305061E-01 -7.264838224518E-02
C22 -2.384515391424E-01 -2.118390305061E-01  7.264838224518E-02
C23  3.707626907342E-01  1.090108986096E-01 -3.714620262204E-02
C24 -3.707626907342E-01 -1.090108986096E-01  3.714620262204E-02
C25  3.883850845051E-01 -1.327085825816E-01  1.597282966562E-01
C26 -3.883850845051E-01  1.327085825816E-01 -1.597282966562E-01
C27  3.314984636134E-01 -1.992343609365E-01  2.253556134219E-01
C28 -3.314984636134E-01  1.992343609365E-01 -2.253556134219E-01
C29  3.066349077873E-01  4.499352010470E-01  3.134992641801E-01
C30 -3.066349077873E-01 -4.499352010470E-01 -3.134992641801E-01
C31  2.201959564811E-01  3.575621069037E-01  2.476861315443E-01
C32 -2.201959564811E-01 -3.575621069037E-01 -2.476861315443E-01
C33 -4.806341005166E-01  4.133168129718E-01  2.965679600242E-01
C34  4.806341005166E-01 -4.133168129718E-01 -2.965679600242E-01
C35  3.504866217290E-01 -1.959507755780E-01  4.051525054229E-01
C36 -3.504866217290E-01  1.959507755780E-01 -4.051525054229E-01
C37  3.251798589525E-01 -2.895473041879E-01  4.873866242595E-01
C38 -3.251798589525E-01  2.895473041879E-01 -4.873866242595E-01
C39  2.986534211711E-01  4.636163628058E-03  4.175759458280E-01
C40 -2.986534211711E-01 -4.636163628058E-03 -4.175759458280E-01
C41 -3.061614795147E-02 -2.595156802937E-01  3.380480285195E-01
C42  3.061614795147E-02  2.595156802937E-01 -3.380480285195E-01
C43 -1.195169184962E-01 -3.481004685414E-01  4.165301220951E-01
C44  1.195169184962E-01  3.481004685414E-01 -4.165301220951E-01
C45 -1.044826057780E-01 -6.406304177653E-02  3.361002437483E-01
C46  1.044826057780E-01  6.406304177653E-02 -3.361002437483E-01
H47  9.087337508542E-02  3.933501421665E-02  1.487986294529E-01
H48 -9.087337508542E-02 -3.933501421665E-02 -1.487986294529E-01
H49 -2.224497526661E-01  1.889493000032E-01  1.572768755068E-01
H50  2.224497526661E-01 -1.889493000032E-01 -1.572768755068E-01
H51 -4.500957771345E-01  3.652452706440E-01  9.182026157910E-02
H52  4.500957771345E-01 -3.652452706440E-01 -9.182026157910E-02
H53 -3.582130122684E-01  4.708786716554E-01 -5.142188529235E-02
H54  3.582130122684E-01 -4.708786716554E-01  5.142188529235E-02
H55 -3.837543987746E-02  4.028698009034E-01 -1.288537595353E-01
H56  3.837543987746E-02 -4.028698009034E-01  1.288537595353E-01
H57  2.797314590851E-01  2.567141824265E-01 -1.353854424711E-01
H58 -2.797314590851E-01 -2.567141824265E-01  1.353854424711E-01
H59  2.519905604148E-01  3.974089717075E-01  3.744227674911E-01
H60 -2.519905604148E-01 -3.974089717075E-01 -3.744227674911E-01
H61  2.616574955135E-01  4.131086647593E-01  1.865032708379E-01
H62 -2.616574955135E-01 -4.131086647593E-01 -1.865032708379E-01
H63  6.702359270569E-02  3.708565292890E-01  2.621623241783E-01
H64 -6.702359270569E-02 -3.708565292890E-01 -2.621623241783E-01
H65  2.662457399869E-01  2.145226102906E-01  2.414198557482E-01
H66 -2.662457399869E-01 -2.145226102906E-01 -2.414198557482E-01
H67 -4.394542513332E-01  2.692223850563E-01  2.915302772165E-01
H68  4.394542513332E-01 -2.692223850563E-01 -2.915302772165E-01
H69 -4.169949800164E-01  4.691553365401E-01  3.459363797053E-01
H70  4.169949800164E-01 -4.691553365401E-01 -3.459363797053E-01
H71 -4.190476839586E-01  4.703331120621E-01  2.380233895742E-01
H72  4.190476839586E-01 -4.703331120621E-01 -2.380233895742E-01
H73  4.990212338855E-01 -2.175975243130E-01  3.751033844148E-01
H74 -4.990212338855E-01  2.175975243130E-01 -3.751033844148E-01
H75  4.138860850173E-01 -2.384159949415E-01 -4.716122684139E-01
H76 -4.138860850173E-01  2.384159949415E-01  4.716122684139E-01
H77  3.592331541670E-01 -4.343468759670E-01  4.791950760913E-01
H78 -3.592331541670E-01  4.343468759670E-01 -4.791950760913E-01
H79  1.805030894406E-01 -2.661691002819E-01 -4.790478475596E-01
H80 -1.805030894406E-01  2.661691002819E-01  4.790478475596E-01
H81  1.518875920176E-01  3.335888414457E-02  4.476287508176E-01
H82 -1.518875920176E-01 -3.335888414457E-02 -4.476287508176E-01
H83  3.186358591269E-01  7.206140343507E-02  3.585668188206E-01
H84 -3.186358591269E-01 -7.206140343507E-02 -3.585668188206E-01
H85  3.831990945219E-01  6.543815785933E-02  4.579831568978E-01
H86 -3.831990945219E-01 -6.543815785933E-02 -4.579831568978E-01
H87 -6.626005588792E-02 -3.299525912849E-01  2.841354038646E-01
H88  6.626005588792E-02  3.299525912849E-01 -2.841354038646E-01
H89 -8.475676671973E-02 -4.924341163230E-01  4.121857849963E-01
H90  8.475676671973E-02  4.924341163230E-01 -4.121857849963E-01
H91 -2.721053507156E-01 -3.221230698866E-01  4.284278730238E-01
H92  2.721053507156E-01  3.221230698866E-01 -4.284278730238E-01
H93 -7.236807688850E-02 -2.971497656462E-01  4.716153149029E-01
H94  7.236807688850E-02  2.971497656462E-01 -4.716153149029E-01
H95 -2.794986157011E-02  2.467397233186E-03  2.835525554859E-01
H96  2.794986157011E-02 -2.467397233186E-03 -2.835525554859E-01
H97 -9.286480161879E-02  1.045312240680E-02  3.928857064288E-01
H98  9.286480161879E-02 -1.045312240680E-02 -3.928857064288E-01
H99 -2.531312812017E-01 -5.228491361842E-02  3.311225795084E-01
H100  2.531312812017E-01  5.228491361842E-02 -3.311225795084E-01


#===END

data_OPT_STEP_23

_symmetry_space_group_name_H-M 'P 1'
_cell_length_a      7.29390898
_cell_length_b      7.51988384
_cell_length_c     16.36967937
_cell_angle_alpha   91.311120
_cell_angle_beta   79.723706
_cell_angle_gamma   85.177244

loop_
_atom_site_label
_atom_site_fract_x
_atom_site_fract_y
_atom_site_fract_z
SI1  2.346097458251E-01 -3.020076252098E-01  3.225445485840E-01
SI2 -2.346097458251E-01  3.020076252098E-01 -3.225445485840E-01
C3  4.457580884227E-01 -6.370085781499E-02  8.068508547717E-02
C4 -4.457580884227E-01  6.370085781499E-02 -8.068508547717E-02
C5  3.163698612266E-01  4.537062676803E-02  4.517531200796E-02
C6 -3.163698612266E-01 -4.537062676803E-02 -4.517531200796E-02
C7  1.333095819558E-01  9.058820326516E-02  8.739975054058E-02
C8 -1.333095819558E-01 -9.058820326516E-02 -8.739975054058E-02
C9  5.014017113139E-03  1.944981511265E-01  5.255617945421E-02
C10 -5.014017113139E-03 -1.944981511265E-01 -5.255617945421E-02
C11 -1.815031520640E-01  2.385399655073E-01  9.547356559661E-02
C12  1.815031520640E-01 -2.385399655073E-01 -9.547356559661E-02
C13 -3.069017435612E-01  3.363089530360E-01  5.898552362225E-02
C14  3.069017435612E-01 -3.363089530360E-01 -5.898552362225E-02
C15 -2.545941173495E-01  3.957829448289E-01 -2.300985576314E-02
C16  2.545941173495E-01 -3.957829448289E-01  2.300985576314E-02
C17 -7.837264105595E-02  3.571565075888E-01 -6.619276498801E-02
C18  7.837264105595E-02 -3.571565075888E-01  6.619276498801E-02
C19  5.827214463555E-02  2.555143416595E-01 -3.025140626119E-02
C20 -5.827214463555E-02 -2.555143416595E-01  3.025140626119E-02
C21  2.383855075488E-01  2.121003423449E-01 -7.254353016448E-02
C22 -2.383855075488E-01 -2.121003423449E-01  7.254353016448E-02
C23  3.707522582556E-01  1.092293160926E-01 -3.707069304355E-02
C24 -3.707522582556E-01 -1.092293160926E-01  3.707069304355E-02
C25  3.884466235741E-01 -1.336584338155E-01  1.593949603863E-01
C26 -3.884466235741E-01  1.336584338155E-01 -1.593949603863E-01
C27  3.316347714186E-01 -2.004569756905E-01  2.249357845622E-01
C28 -3.316347714186E-01  2.004569756905E-01 -2.249357845622E-01
C29  3.068488459450E-01  4.484214004962E-01  3.129996878620E-01
C30 -3.068488459450E-01 -4.484214004962E-01 -3.129996878620E-01
C31  2.201606621503E-01  3.559111350953E-01  2.472343984859E-01
C32 -2.201606621503E-01 -3.559111350953E-01 -2.472343984859E-01
C33 -4.804762287703E-01  4.119936262985E-01  2.960224534206E-01
C34  4.804762287703E-01 -4.119936262985E-01 -2.960224534206E-01
C35  3.508483257462E-01 -1.972136376511E-01  4.046553397087E-01
C36 -3.508483257462E-01  1.972136376511E-01 -4.046553397087E-01
C37  3.250787409766E-01 -2.903039019537E-01  4.869426123476E-01
C38 -3.250787409766E-01  2.903039019537E-01 -4.869426123476E-01
C39  2.997780670747E-01  3.506187488064E-03  4.168446005107E-01
C40 -2.997780670747E-01 -3.506187488064E-03 -4.168446005107E-01
C41 -3.030047373991E-02 -2.607852673088E-01  3.374440006030E-01
C42  3.030047373991E-02  2.607852673088E-01 -3.374440006030E-01
C43 -1.191123203782E-01 -3.482582921300E-01  4.162256241406E-01
C44  1.191123203782E-01  3.482582921300E-01 -4.162256241406E-01
C45 -1.039049188776E-01 -6.522282839730E-02  3.348651159394E-01
C46  1.039049188776E-01  6.522282839730E-02 -3.348651159394E-01
H47  9.121672813721E-02  3.877527689323E-02  1.485846938812E-01
H48 -9.121672813721E-02 -3.877527689323E-02 -1.485846938812E-01
H49 -2.220131258363E-01  1.885273036914E-01  1.571169011074E-01
H50  2.220131258363E-01 -1.885273036914E-01 -1.571169011074E-01
H51 -4.497070123831E-01  3.650301330472E-01  9.180513608754E-02
H52  4.497070123831E-01 -3.650301330472E-01 -9.180513608754E-02
H53 -3.581668031859E-01  4.709123043242E-01 -5.134025373695E-02
H54  3.581668031859E-01 -4.709123043242E-01  5.134025373695E-02
H55 -3.854611630130E-02  4.031014493373E-01 -1.286988670504E-01
H56  3.854611630130E-02 -4.031014493373E-01  1.286988670504E-01
H57  2.796166490395E-01  2.573692521572E-01 -1.351483724821E-01
H58 -2.796166490395E-01 -2.573692521572E-01  1.351483724821E-01
H59  2.524667740671E-01  3.958178890379E-01  3.739025035864E-01
H60 -2.524667740671E-01 -3.958178890379E-01 -3.739025035864E-01
H61  2.611530396890E-01  4.116960783401E-01  1.861155620564E-01
H62 -2.611530396890E-01 -4.116960783401E-01 -1.861155620564E-01
H63  6.707416283346E-02  3.689019031114E-01  2.617820212992E-01
H64 -6.707416283346E-02 -3.689019031114E-01 -2.617820212992E-01
H65  2.663772026807E-01  2.128804152263E-01  2.408665515825E-01
H66 -2.663772026807E-01 -2.128804152263E-01 -2.408665515825E-01
H67 -4.392216619277E-01  2.678400356772E-01  2.909032943062E-01
H68  4.392216619277E-01 -2.678400356772E-01 -2.909032943062E-01
H69 -4.167008140969E-01  4.678448973564E-01  3.453893158996E-01
H70  4.167008140969E-01 -4.678448973564E-01 -3.453893158996E-01
H71 -4.191437306179E-01  4.692301987217E-01  2.375328633539E-01
H72  4.191437306179E-01 -4.692301987217E-01 -2.375328633539E-01
H73  4.992749803013E-01 -2.192934064678E-01  3.747614473162E-01
H74 -4.992749803013E-01  2.192934064678E-01 -3.747614473162E-01
H75  4.138075445859E-01 -2.391358333777E-01 -4.720342727060E-01
H76 -4.138075445859E-01  2.391358333777E-01  4.720342727060E-01
H77  3.586179173048E-01 -4.351568162776E-01  4.790227647685E-01
H78 -3.586179173048E-01  4.351568162776E-01 -4.790227647685E-01
H79  1.805083025283E-01 -2.664062950372E-01 -4.796628468034E-01
H80 -1.805083025283E-01  2.664062950372E-01  4.796628468034E-01
H81  1.533303888565E-01  3.281830852027E-02  4.469551507855E-01
H82 -1.533303888565E-01 -3.281830852027E-02 -4.469551507855E-01
H83  3.195598193860E-01  7.055721768523E-02  3.577823592174E-01
H84 -3.195598193860E-01 -7.055721768523E-02 -3.577823592174E-01
H85  3.848580188305E-01  6.418185399572E-02  4.570412399562E-01
H86 -3.848580188305E-01 -6.418185399572E-02 -4.570412399562E-01
H87 -6.613030364597E-02 -3.321368859570E-01  2.837526989996E-01
H88  6.613030364597E-02  3.321368859570E-01 -2.837526989996E-01
H89 -8.453800871631E-02 -4.926743427085E-01  4.123455471379E-01
H90  8.453800871631E-02  4.926743427085E-01 -4.123455471379E-01
H91 -2.716820636501E-01 -3.223325650699E-01  4.281245468884E-01
H92  2.716820636501E-01  3.223325650699E-01 -4.281245468884E-01
H93 -7.169116147307E-02 -2.963438335111E-01  4.710863904026E-01
H94  7.169116147307E-02  2.963438335111E-01 -4.710863904026E-01
H95 -2.751929188521E-02  5.641389211241E-04  2.820786769760E-01
H96  2.751929188521E-02 -5.641389211241E-04 -2.820786769760E-01
H97 -9.190988146384E-02  1.020482837320E-02  3.913739565628E-01
H98  9.190988146384E-02 -1.020482837320E-02 -3.913739565628E-01
H99 -2.525507499233E-01 -5.350177796897E-02  3.299187574225E-01
H100  2.525507499233E-01  5.350177796897E-02 -3.299187574225E-01


#===END

data_OPT_STEP_24

_symmetry_space_group_name_H-M 'P 1'
_cell_length_a      7.28175715
_cell_length_b      7.54949028
_cell_length_c     16.35072580
_cell_angle_alpha   91.504266
_cell_angle_beta   79.837999
_cell_angle_gamma   85.298021

loop_
_atom_site_label
_atom_site_fract_x
_atom_site_fract_y
_atom_site_fract_z
SI1  2.340946511329E-01 -3.018666134719E-01  3.218306473076E-01
SI2 -2.340946511329E-01  3.018666134719E-01 -3.218306473076E-01
C3  4.458734817530E-01 -6.304943642285E-02  8.065218188100E-02
C4 -4.458734817530E-01  6.304943642285E-02 -8.065218188100E-02
C5  3.163916221257E-01  4.561912054868E-02  4.527341574175E-02
C6 -3.163916221257E-01 -4.561912054868E-02 -4.527341574175E-02
C7  1.331972747970E-01  9.048521040090E-02  8.740408579333E-02
C8 -1.331972747970E-01 -9.048521040090E-02 -8.740408579333E-02
C9  4.891379191992E-03  1.943657059100E-01  5.271152970873E-02
C10 -4.891379191992E-03 -1.943657059100E-01 -5.271152970873E-02
C11 -1.818317512966E-01  2.381034629718E-01  9.542817988780E-02
C12  1.818317512966E-01 -2.381034629718E-01 -9.542817988780E-02
C13 -3.070900672023E-01  3.357645854445E-01  5.888702626558E-02
C14  3.070900672023E-01 -3.357645854445E-01 -5.888702626558E-02
C15 -2.543848022499E-01  3.957633375445E-01 -2.277249962777E-02
C16  2.543848022499E-01 -3.957633375445E-01  2.277249962777E-02
C17 -7.808200782464E-02  3.573357572004E-01 -6.570437059025E-02
C18  7.808200782464E-02 -3.573357572004E-01  6.570437059025E-02
C19  5.822158628430E-02  2.551083359283E-01 -3.000191519078E-02
C20 -5.822158628430E-02 -2.551083359283E-01  3.000191519078E-02
C21  2.383466532005E-01  2.115876904026E-01 -7.230239946276E-02
C22 -2.383466532005E-01 -2.115876904026E-01  7.230239946276E-02
C23  3.706788329995E-01  1.087947778044E-01 -3.696992201648E-02
C24 -3.706788329995E-01 -1.087947778044E-01  3.696992201648E-02
C25  3.883564506168E-01 -1.332673823284E-01  1.590920689662E-01
C26 -3.883564506168E-01  1.332673823284E-01 -1.590920689662E-01
C27  3.313167495798E-01 -2.000165148307E-01  2.245215855782E-01
C28 -3.313167495798E-01  2.000165148307E-01 -2.245215855782E-01
C29  3.069468069349E-01  4.496052869298E-01  3.117965051083E-01
C30 -3.069468069349E-01 -4.496052869298E-01 -3.117965051083E-01
C31  2.212510497931E-01  3.575562191211E-01  2.453245407475E-01
C32 -2.212510497931E-01 -3.575562191211E-01 -2.453245407475E-01
C33 -4.800534874221E-01  4.137649562546E-01  2.954761869704E-01
C34  4.800534874221E-01 -4.137649562546E-01 -2.954761869704E-01
C35  3.498502333752E-01 -1.969810801013E-01  4.044663080518E-01
C36 -3.498502333752E-01  1.969810801013E-01 -4.044663080518E-01
C37  3.247008576143E-01 -2.901665026596E-01  4.866978394842E-01
C38 -3.247008576143E-01  2.901665026596E-01 -4.866978394842E-01
C39  2.981019194326E-01  2.622533661403E-03  4.171329454764E-01
C40 -2.981019194326E-01 -2.622533661403E-03 -4.171329454764E-01
C41 -3.117951224560E-02 -2.618383347258E-01  3.363398399410E-01
C42  3.117951224560E-02  2.618383347258E-01 -3.363398399410E-01
C43 -1.198798567732E-01 -3.484227105078E-01  4.152396242526E-01
C44  1.198798567732E-01  3.484227105078E-01 -4.152396242526E-01
C45 -1.049393364961E-01 -6.740231996349E-02  3.333599087783E-01
C46  1.049393364961E-01  6.740231996349E-02 -3.333599087783E-01
H47  9.121816125287E-02  3.890804779621E-02  1.484567901919E-01
H48 -9.121816125287E-02 -3.890804779621E-02 -1.484567901919E-01
H49 -2.224585720649E-01  1.887541110653E-01  1.571963238475E-01
H50  2.224585720649E-01 -1.887541110653E-01 -1.571963238475E-01
H51 -4.499064015393E-01  3.647281036540E-01  9.155031116888E-02
H52  4.499064015393E-01 -3.647281036540E-01 -9.155031116888E-02
H53 -3.576635740642E-01  4.714680351194E-01 -5.095482084910E-02
H54  3.576635740642E-01 -4.714680351194E-01  5.095482084910E-02
H55 -3.784547876294E-02  4.041196961810E-01 -1.277457290180E-01
H56  3.784547876294E-02 -4.041196961810E-01  1.277457290180E-01
H57  2.795294234096E-01  2.564988424496E-01 -1.348715613146E-01
H58 -2.795294234096E-01 -2.564988424496E-01  1.348715613146E-01
H59  2.518323535089E-01  3.968161695355E-01  3.724151239631E-01
H60 -2.518323535089E-01 -3.968161695355E-01 -3.724151239631E-01
H61  2.623551261610E-01  4.140401262595E-01  1.845913234606E-01
H62 -2.623551261610E-01 -4.140401262595E-01 -1.845913234606E-01
H63  6.798472209751E-02  3.693863142168E-01  2.594852914734E-01
H64 -6.798472209751E-02 -3.693863142168E-01 -2.594852914734E-01
H65  2.684153106030E-01  2.154285121546E-01  2.384162497613E-01
H66 -2.684153106030E-01 -2.154285121546E-01 -2.384162497613E-01
H67 -4.385613112174E-01  2.703859584919E-01  2.899639930926E-01
H68  4.385613112174E-01 -2.703859584919E-01 -2.899639930926E-01
H69 -4.171140821067E-01  4.690452055078E-01  3.453864048951E-01
H70  4.171140821067E-01 -4.690452055078E-01 -3.453864048951E-01
H71 -4.178951000361E-01  4.712764338783E-01  2.373674689694E-01
H72  4.178951000361E-01 -4.712764338783E-01 -2.373674689694E-01
H73  4.983176395975E-01 -2.177082066909E-01  3.745941675279E-01
H74 -4.983176395975E-01  2.177082066909E-01 -3.745941675279E-01
H75  4.134241200524E-01 -2.390708403889E-01 -4.720562012136E-01
H76 -4.134241200524E-01  2.390708403889E-01  4.720562012136E-01
H77  3.585535038610E-01 -4.340847041997E-01  4.785605682743E-01
H78 -3.585535038610E-01  4.340847041997E-01 -4.785605682743E-01
H79  1.801711913761E-01 -2.671558602021E-01 -4.798828034074E-01
H80 -1.801711913761E-01  2.671558602021E-01  4.798828034074E-01
H81  1.517730672495E-01  3.105765727885E-02  4.475094517973E-01
H82 -1.517730672495E-01 -3.105765727885E-02 -4.475094517973E-01
H83  3.168423606037E-01  7.010445212944E-02  3.581462053797E-01
H84 -3.168423606037E-01 -7.010445212944E-02 -3.581462053797E-01
H85  3.835346313843E-01  6.261158001749E-02  4.573516206254E-01
H86 -3.835346313843E-01 -6.261158001749E-02 -4.573516206254E-01
H87 -6.662371659425E-02 -3.338220416030E-01  2.826077142811E-01
H88  6.662371659425E-02  3.338220416030E-01 -2.826077142811E-01
H89 -8.470721685231E-02 -4.921130052733E-01  4.114894021430E-01
H90  8.470721685231E-02  4.921130052733E-01 -4.114894021430E-01
H91 -2.726426362571E-01 -3.239091805559E-01  4.271784419451E-01
H92  2.726426362571E-01  3.239091805559E-01 -4.271784419451E-01
H93 -7.247147675928E-02 -2.956848707139E-01  4.700985872144E-01
H94  7.247147675928E-02  2.956848707139E-01 -4.700985872144E-01
H95 -2.744529766730E-02 -2.095965869719E-03  2.808428854122E-01
H96  2.744529766730E-02  2.095965869719E-03 -2.808428854122E-01
H97 -9.437408772728E-02  8.139999400865E-03  3.900867458476E-01
H98  9.437408772728E-02 -8.139999400865E-03 -3.900867458476E-01
H99 -2.532181068542E-01 -5.623783057840E-02  3.275277907997E-01
H100  2.532181068542E-01  5.623783057840E-02 -3.275277907997E-01


#===END

data_OPT_STEP_25

_symmetry_space_group_name_H-M 'P 1'
_cell_length_a      7.27059270
_cell_length_b      7.56654034
_cell_length_c     16.37942012
_cell_angle_alpha   91.359561
_cell_angle_beta   79.960523
_cell_angle_gamma   85.514641

loop_
_atom_site_label
_atom_site_fract_x
_atom_site_fract_y
_atom_site_fract_z
SI1  2.336863529233E-01 -3.017825515132E-01  3.214292761588E-01
SI2 -2.336863529233E-01  3.017825515132E-01 -3.214292761588E-01
C3  4.456540354619E-01 -6.488617658458E-02  8.004648781030E-02
C4 -4.456540354619E-01  6.488617658458E-02 -8.004648781030E-02
C5  3.162601889987E-01  4.406541148155E-02  4.484427418440E-02
C6 -3.162601889987E-01 -4.406541148155E-02 -4.484427418440E-02
C7  1.334249747942E-01  8.930517489401E-02  8.714088770611E-02
C8 -1.334249747942E-01 -8.930517489401E-02 -8.714088770611E-02
C9  5.176704868861E-03  1.935528769180E-01  5.265342989082E-02
C10 -5.176704868861E-03 -1.935528769180E-01 -5.265342989082E-02
C11 -1.811219914809E-01  2.381479080858E-01  9.565648984690E-02
C12  1.811219914809E-01 -2.381479080858E-01 -9.565648984690E-02
C13 -3.061886681345E-01  3.365327150849E-01  5.934313552376E-02
C14  3.061886681345E-01 -3.365327150849E-01 -5.934313552376E-02
C15 -2.536446044972E-01  3.965311695849E-01 -2.228712997493E-02
C16  2.536446044972E-01 -3.965311695849E-01  2.228712997493E-02
C17 -7.763618084499E-02  3.581666874516E-01 -6.510513708576E-02
C18  7.763618084499E-02 -3.581666874516E-01  6.510513708576E-02
C19  5.830346301821E-02  2.547966859254E-01 -2.983097176426E-02
C20 -5.830346301821E-02 -2.547966859254E-01  2.983097176426E-02
C21  2.384122381033E-01  2.120747571555E-01 -7.196822813388E-02
C22 -2.384122381033E-01 -2.120747571555E-01  7.196822813388E-02
C23  3.707288434531E-01  1.090773158303E-01 -3.678743116058E-02
C24 -3.707288434531E-01 -1.090773158303E-01  3.678743116058E-02
C25  3.882856363751E-01 -1.348329739553E-01  1.584980503603E-01
C26 -3.882856363751E-01  1.348329739553E-01 -1.584980503603E-01
C27  3.311997642616E-01 -2.008000936981E-01  2.240826522281E-01
C28 -3.311997642616E-01  2.008000936981E-01 -2.240826522281E-01
C29  3.061922958130E-01  4.501874376930E-01  3.126727455503E-01
C30 -3.061922958130E-01 -4.501874376930E-01 -3.126727455503E-01
C31  2.197596290683E-01  3.566140975104E-01  2.467380703183E-01
C32 -2.197596290683E-01 -3.566140975104E-01 -2.467380703183E-01
C33 -4.805981253015E-01  4.150465574076E-01  2.964810282703E-01
C34  4.805981253015E-01 -4.150465574076E-01 -2.964810282703E-01
C35  3.491042799238E-01 -1.957288414442E-01  4.038068844139E-01
C36 -3.491042799238E-01  1.957288414442E-01 -4.038068844139E-01
C37  3.247271738891E-01 -2.889781286682E-01  4.858423482351E-01
C38 -3.247271738891E-01  2.889781286682E-01 -4.858423482351E-01
C39  2.962017689134E-01  2.848721137794E-03  4.163220177835E-01
C40 -2.962017689134E-01 -2.848721137794E-03 -4.163220177835E-01
C41 -3.179213360277E-02 -2.623683357048E-01  3.352776609704E-01
C42  3.179213360277E-02  2.623683357048E-01 -3.352776609704E-01
C43 -1.209984217312E-01 -3.484618767214E-01  4.141219812253E-01
C44  1.209984217312E-01  3.484618767214E-01 -4.141219812253E-01
C45 -1.041453795895E-01 -6.874349941480E-02  3.317575332357E-01
C46  1.041453795895E-01  6.874349941480E-02 -3.317575332357E-01
H47  9.157391599004E-02  3.698825331492E-02  1.478171417106E-01
H48 -9.157391599004E-02 -3.698825331492E-02 -1.478171417106E-01
H49 -2.217734376645E-01  1.884451688356E-01  1.572918027934E-01
H50  2.217734376645E-01 -1.884451688356E-01 -1.572918027934E-01
H51 -4.488104802269E-01  3.647029035516E-01  9.167334308805E-02
H52  4.488104802269E-01 -3.647029035516E-01 -9.167334308805E-02
H53 -3.567702269222E-01  4.725217445810E-01 -5.047671518860E-02
H54  3.567702269222E-01 -4.725217445810E-01  5.047671518860E-02
H55 -3.760624517658E-02  4.046692829147E-01 -1.272673108127E-01
H56  3.760624517658E-02 -4.046692829147E-01  1.272673108127E-01
H57  2.801051409241E-01  2.597351062945E-01 -1.336401313872E-01
H58 -2.801051409241E-01 -2.597351062945E-01  1.336401313872E-01
H59  2.512080773011E-01  3.982944524456E-01  3.735650989139E-01
H60 -2.512080773011E-01 -3.982944524456E-01 -3.735650989139E-01
H61  2.596554436425E-01  4.131087692582E-01  1.858772102414E-01
H62 -2.596554436425E-01 -4.131087692582E-01 -1.858772102414E-01
H63  6.643631901921E-02  3.666634899083E-01  2.611700084223E-01
H64 -6.643631901921E-02 -3.666634899083E-01 -2.611700084223E-01
H65  2.677231263791E-01  2.151192765958E-01  2.400639515236E-01
H66 -2.677231263791E-01 -2.151192765958E-01 -2.400639515236E-01
H67 -4.394343679367E-01  2.720126541243E-01  2.917917337922E-01
H68  4.394343679367E-01 -2.720126541243E-01 -2.917917337922E-01
H69 -4.172596000452E-01  4.715087412970E-01  3.460352861634E-01
H70  4.172596000452E-01 -4.715087412970E-01 -3.460352861634E-01
H71 -4.184487211275E-01  4.715625087234E-01  2.380728943406E-01
H72  4.184487211275E-01 -4.715625087234E-01 -2.380728943406E-01
H73  4.975615624009E-01 -2.144143544770E-01  3.743408758100E-01
H74 -4.975615624009E-01  2.144143544769E-01 -3.743408758100E-01
H75  4.133257278251E-01 -2.377649897733E-01 -4.728758855433E-01
H76 -4.133257278251E-01  2.377649897733E-01  4.728758855433E-01
H77  3.589871828466E-01 -4.320587573927E-01  4.777905712408E-01
H78 -3.589871828466E-01  4.320587573927E-01 -4.777905712408E-01
H79  1.803774179225E-01 -2.672763721060E-01 -4.810288768298E-01
H80 -1.803774179225E-01  2.672763721060E-01  4.810288768298E-01
H81  1.493813322670E-01  2.966415992213E-02  4.458233660365E-01
H82 -1.493813322670E-01 -2.966415992213E-02 -4.458233660365E-01
H83  3.156211751195E-01  7.039687629061E-02  3.575300839601E-01
H84 -3.156211751195E-01 -7.039687629061E-02 -3.575300839601E-01
H85  3.803814417474E-01  6.307274395655E-02  4.570199815118E-01
H86 -3.803814417474E-01 -6.307274395655E-02 -4.570199815118E-01
H87 -6.715662757143E-02 -3.342051032864E-01  2.817224689369E-01
H88  6.715662757143E-02  3.342051032864E-01 -2.817224689369E-01
H89 -8.512769317304E-02 -4.916385669301E-01  4.108843481812E-01
H90  8.512769317304E-02  4.916385669301E-01 -4.108843481812E-01
H91 -2.739054511863E-01 -3.260054093552E-01  4.257962383884E-01
H92  2.739054511863E-01  3.260054093552E-01 -4.257962383884E-01
H93 -7.410042989190E-02 -2.947180179387E-01  4.688098430037E-01
H94  7.410042989190E-02  2.947180179387E-01 -4.688098430037E-01
H95 -2.483751705851E-02 -3.520116278002E-03  2.797180865912E-01
H96  2.483751705851E-02  3.520116278002E-03 -2.797180865912E-01
H97 -9.461290273425E-02  5.948966105420E-03  3.885017900481E-01
H98  9.461290273425E-02 -5.948966105420E-03 -3.885017900481E-01
H99 -2.517750717100E-01 -5.735063271568E-02  3.248601344892E-01
H100  2.517750717100E-01  5.735063271568E-02 -3.248601344892E-01


#===END

data_OPT_STEP_26

_symmetry_space_group_name_H-M 'P 1'
_cell_length_a      7.26023737
_cell_length_b      7.55559690
_cell_length_c     16.36122643
_cell_angle_alpha   91.690729
_cell_angle_beta   80.090189
_cell_angle_gamma   85.838525

loop_
_atom_site_label
_atom_site_fract_x
_atom_site_fract_y
_atom_site_fract_z
SI1  2.330964839616E-01 -3.017962645137E-01  3.210837167883E-01
SI2 -2.330964839616E-01  3.017962645137E-01 -3.210837167883E-01
C3  4.454837291685E-01 -6.470914836782E-02  8.003132971656E-02
C4 -4.454837291685E-01  6.470914836782E-02 -8.003132971656E-02
C5  3.165069370673E-01  4.460638051082E-02  4.497563087126E-02
C6 -3.165069370673E-01 -4.460638051082E-02 -4.497563087126E-02
C7  1.336589087796E-01  8.962387747585E-02  8.716268135478E-02
C8 -1.336589087796E-01 -8.962387747585E-02 -8.716268135478E-02
C9  5.605519553792E-03  1.935666902239E-01  5.269083879862E-02
C10 -5.605519553792E-03 -1.935666902239E-01 -5.269083879862E-02
C11 -1.804366017464E-01  2.389224703121E-01  9.593303223336E-02
C12  1.804366017464E-01 -2.389224703121E-01 -9.593303223336E-02
C13 -3.052504964936E-01  3.373545251311E-01  5.978503203783E-02
C14  3.052504964936E-01 -3.373545251311E-01 -5.978503203783E-02
C15 -2.526279784175E-01  3.967423151073E-01 -2.191398802564E-02
C16  2.526279784175E-01 -3.967423151073E-01  2.191398802564E-02
C17 -7.692059167343E-02  3.574590358974E-01 -6.501741090442E-02
C18  7.692059167343E-02 -3.574590358974E-01  6.501741090442E-02
C19  5.891150059692E-02  2.547114504799E-01 -2.967869476732E-02
C20 -5.891150059692E-02 -2.547114504799E-01  2.967869476732E-02
C21  2.390536682156E-01  2.122084107932E-01 -7.180418292633E-02
C22 -2.390536682156E-01 -2.122084107932E-01  7.180418292633E-02
C23  3.711152468056E-01  1.092759196135E-01 -3.667183173259E-02
C24 -3.711152468056E-01 -1.092759196135E-01  3.667183173259E-02
C25  3.877550030421E-01 -1.347519255156E-01  1.583740822142E-01
C26 -3.877550030421E-01  1.347519255156E-01 -1.583740822142E-01
C27  3.306707608824E-01 -2.005684007553E-01  2.239316583150E-01
C28 -3.306707608824E-01  2.005684007553E-01 -2.239316583150E-01
C29  3.060223337244E-01  4.502525622875E-01  3.117700457827E-01
C30 -3.060223337244E-01 -4.502525622875E-01 -3.117700457827E-01
C31  2.193525370819E-01  3.564500548352E-01  2.455062571761E-01
C32 -2.193525370819E-01 -3.564500548352E-01 -2.455062571761E-01
C33 -4.805750368825E-01  4.165326009848E-01  2.954130307673E-01
C34  4.805750368825E-01 -4.165326009848E-01 -2.954130307673E-01
C35  3.479207958758E-01 -1.946821535445E-01  4.040724900655E-01
C36 -3.479207958758E-01  1.946821535445E-01 -4.040724900655E-01
C37  3.232939779509E-01 -2.883106334989E-01  4.858919223231E-01
C38 -3.232939779509E-01  2.883106334989E-01 -4.858919223231E-01
C39  2.941002059535E-01  3.850843043276E-03  4.173145499638E-01
C40 -2.941002059535E-01 -3.850843043276E-03 -4.173145499638E-01
C41 -3.263062637745E-02 -2.633942785212E-01  3.345692288535E-01
C42  3.263062637745E-02  2.633942785212E-01 -3.345692288535E-01
C43 -1.220078667795E-01 -3.475129776470E-01  4.138555459898E-01
C44  1.220078667795E-01  3.475129776470E-01 -4.138555459898E-01
C45 -1.045172816061E-01 -6.985916544146E-02  3.301298953801E-01
C46  1.045172816061E-01  6.985916544146E-02 -3.301298953801E-01
H47  9.193319828486E-02  3.823427883253E-02  1.480552807259E-01
H48 -9.193319828486E-02 -3.823427883253E-02 -1.480552807259E-01
H49 -2.213574977529E-01  1.887350975856E-01  1.572718581340E-01
H50  2.213574977529E-01 -1.887350975856E-01 -1.572718581340E-01
H51 -4.477129016282E-01  3.657862754543E-01  9.231423769000E-02
H52  4.477129016282E-01 -3.657862754543E-01 -9.231423769000E-02
H53 -3.554782794913E-01  4.723224376720E-01 -5.029504876259E-02
H54  3.554782794913E-01 -4.723224376720E-01  5.029504876259E-02
H55 -3.683593035000E-02  4.036785395690E-01 -1.272141529626E-01
H56  3.683593035000E-02 -4.036785395690E-01  1.272141529626E-01
H57  2.807904964173E-01  2.594306732574E-01 -1.336046511876E-01
H58 -2.807904964173E-01 -2.594306732574E-01  1.336046511876E-01
H59  2.513660469765E-01  3.977587298350E-01  3.724561308670E-01
H60 -2.513660469765E-01 -3.977587298350E-01 -3.724561308670E-01
H61  2.576088778462E-01  4.147185533917E-01  1.851876638467E-01
H62 -2.576088778462E-01 -4.147185533917E-01 -1.851876638467E-01
H63  6.606842595332E-02  3.641692143993E-01  2.601849158192E-01
H64 -6.606842595332E-02 -3.641692143993E-01 -2.601849158192E-01
H65  2.687737244964E-01  2.156658125502E-01  2.377238998440E-01
H66 -2.687737244964E-01 -2.156658125502E-01 -2.377238998440E-01
H67 -4.391330290265E-01  2.735799436526E-01  2.902581097054E-01
H68  4.391330290265E-01 -2.735799436526E-01 -2.902581097054E-01
H69 -4.169864160041E-01  4.733673093458E-01  3.451247889760E-01
H70  4.169864160041E-01 -4.733673093458E-01 -3.451247889760E-01
H71 -4.188303903757E-01  4.737328913403E-01  2.371720426427E-01
H72  4.188303903757E-01 -4.737328913403E-01 -2.371720426427E-01
H73  4.965305645061E-01 -2.118989066199E-01  3.748708587476E-01
H74 -4.965305645061E-01  2.118989066199E-01 -3.748708587476E-01
H75  4.105967322859E-01 -2.356584735292E-01 -4.721803255786E-01
H76 -4.105967322859E-01  2.356584735292E-01  4.721803255786E-01
H77  3.591033265031E-01 -4.313615404264E-01  4.774713446291E-01
H78 -3.591033265031E-01  4.313615404264E-01 -4.774713446291E-01
H79  1.783110387134E-01 -2.686540237360E-01 -4.813464476398E-01
H80 -1.783110387134E-01  2.686540237360E-01  4.813464476398E-01
H81  1.466655485607E-01  2.933439265776E-02  4.462866079196E-01
H82 -1.466655485607E-01 -2.933439265776E-02 -4.462866079196E-01
H83  3.145332639393E-01  7.161459764118E-02  3.587017946971E-01
H84 -3.145332639393E-01 -7.161459764118E-02 -3.587017946971E-01
H85  3.770655275187E-01  6.481001993717E-02  4.588338095297E-01
H86 -3.770655275187E-01 -6.481001993717E-02 -4.588338095297E-01
H87 -6.788791454508E-02 -3.372917822566E-01  2.812165694303E-01
H88  6.788791454508E-02  3.372917822566E-01 -2.812165694303E-01
H89 -8.585602799608E-02 -4.907713752413E-01  4.113613615242E-01
H90  8.585602799608E-02  4.907713752413E-01 -4.113613615242E-01
H91 -2.751141312586E-01 -3.264370171173E-01  4.253454505895E-01
H92  2.751141312586E-01  3.264370171173E-01 -4.253454505895E-01
H93 -7.521254654997E-02 -2.911979700738E-01  4.684018466308E-01
H94  7.521254654997E-02  2.911979700738E-01 -4.684018466308E-01
H95 -2.374728725315E-02 -5.427099144742E-03  2.782407554037E-01
H96  2.374728725315E-02  5.427099144742E-03 -2.782407554037E-01
H97 -9.659320888831E-02  6.492904491619E-03  3.869598051101E-01
H98  9.659320888831E-02 -6.492904491619E-03 -3.869598051101E-01
H99 -2.516525011471E-01 -5.939988028431E-02  3.221643277187E-01
H100  2.516525011471E-01  5.939988028431E-02 -3.221643277187E-01


#===END

data_OPT_STEP_27

_symmetry_space_group_name_H-M 'P 1'
_cell_length_a      7.24578819
_cell_length_b      7.55238787
_cell_length_c     16.39564074
_cell_angle_alpha   91.595409
_cell_angle_beta   80.141161
_cell_angle_gamma   86.213602

loop_
_atom_site_label
_atom_site_fract_x
_atom_site_fract_y
_atom_site_fract_z
SI1  2.334600641336E-01 -3.012211344899E-01  3.212954187813E-01
SI2 -2.334600641336E-01  3.012211344899E-01 -3.212954187813E-01
C3  4.460504874884E-01 -6.239139194622E-02  8.076626558820E-02
C4 -4.460504874884E-01  6.239139194622E-02 -8.076626558820E-02
C5  3.169095480718E-01  4.550745744391E-02  4.530776342090E-02
C6 -3.169095480718E-01 -4.550745744391E-02 -4.530776342090E-02
C7  1.340944712005E-01  9.005127277734E-02  8.742960244607E-02
C8 -1.340944712005E-01 -9.005127277734E-02 -8.742960244607E-02
C9  6.283648196177E-03  1.937657169093E-01  5.290871758327E-02
C10 -6.283648196177E-03 -1.937657169093E-01 -5.290871758327E-02
C11 -1.797749636055E-01  2.382358503067E-01  9.588967661964E-02
C12  1.797749636055E-01 -2.382358503067E-01 -9.588967661964E-02
C13 -3.044931863794E-01  3.361042367902E-01  5.961791896783E-02
C14  3.044931863794E-01 -3.361042367902E-01 -5.961791896783E-02
C15 -2.517208152747E-01  3.957501696108E-01 -2.201862048996E-02
C16  2.517208152747E-01 -3.957501696108E-01  2.201862048996E-02
C17 -7.594958197008E-02  3.572034740273E-01 -6.494291950044E-02
C18  7.594958197008E-02 -3.572034740273E-01  6.494291950044E-02
C19  5.998226155130E-02  2.557021442591E-01 -2.924442121682E-02
C20 -5.998226155130E-02 -2.557021442591E-01  2.924442121682E-02
C21  2.397433581373E-01  2.123601157609E-01 -7.173352889200E-02
C22 -2.397433581373E-01 -2.123601157609E-01  7.173352889200E-02
C23  3.710565010433E-01  1.080423481237E-01 -3.702990710589E-02
C24 -3.710565010433E-01 -1.080423481237E-01  3.702990710589E-02
C25  3.880058929459E-01 -1.331329315153E-01  1.588924559677E-01
C26 -3.880058929459E-01  1.331329315153E-01 -1.588924559677E-01
C27  3.311281811740E-01 -1.992310439751E-01  2.243602905919E-01
C28 -3.311281811740E-01  1.992310439751E-01 -2.243602905919E-01
C29  3.068426753389E-01  4.514418071716E-01  3.121704607167E-01
C30 -3.068426753389E-01 -4.514418071716E-01 -3.121704607167E-01
C31  2.206779765775E-01  3.576148498363E-01  2.458293250748E-01
C32 -2.206779765775E-01 -3.576148498363E-01 -2.458293250748E-01
C33 -4.795532252805E-01  4.191947000604E-01  2.961395474703E-01
C34  4.795532252805E-01 -4.191947000604E-01 -2.961395474703E-01
C35  3.476410363748E-01 -1.928521687371E-01  4.042834037661E-01
C36 -3.476410363748E-01  1.928521687371E-01 -4.042834037661E-01
C37  3.227359392377E-01 -2.868553715805E-01  4.857388116565E-01
C38 -3.227359392377E-01  2.868553715805E-01 -4.857388116565E-01
C39  2.929519243542E-01  5.167569041238E-03  4.175583103384E-01
C40 -2.929519243542E-01 -5.167569041238E-03 -4.175583103384E-01
C41 -3.272230840732E-02 -2.649452735838E-01  3.341664161306E-01
C42  3.272230840732E-02  2.649452735838E-01 -3.341664161306E-01
C43 -1.226027081810E-01 -3.480718295142E-01  4.136610080872E-01
C44  1.226027081810E-01  3.480718295142E-01 -4.136610080872E-01
C45 -1.053004626957E-01 -7.179140197581E-02  3.283615200854E-01
C46  1.053004626957E-01  7.179140197581E-02 -3.283615200854E-01
H47  9.222349710638E-02  3.842652140092E-02  1.482821629114E-01
H48 -9.222349710638E-02 -3.842652140092E-02 -1.482821629114E-01
H49 -2.208448737196E-01  1.875108256780E-01  1.570639690742E-01
H50  2.208448737196E-01 -1.875108256780E-01 -1.570639690742E-01
H51 -4.468465989923E-01  3.643753014183E-01  9.226805312753E-02
H52  4.468465989923E-01 -3.643753014183E-01 -9.226805312753E-02
H53 -3.536117344070E-01  4.730919981018E-01 -4.989121474431E-02
H54  3.536117344070E-01 -4.730919981018E-01  4.989121474431E-02
H55 -3.555778878040E-02  4.049031911254E-01 -1.266385748802E-01
H56  3.555778878040E-02 -4.049031911254E-01  1.266385748802E-01
H57  2.813374316371E-01  2.585179977126E-01 -1.339715270589E-01
H58 -2.813374316371E-01 -2.585179977126E-01  1.339715270589E-01
H59  2.518722094525E-01  3.982614091306E-01  3.726000350543E-01
H60 -2.518722094525E-01 -3.982614091306E-01 -3.726000350543E-01
H61  2.596637884563E-01  4.162992639408E-01  1.855670065394E-01
H62 -2.596637884563E-01 -4.162992639408E-01 -1.855670065394E-01
H63  6.711379941509E-02  3.647467531386E-01  2.602260354697E-01
H64 -6.711379941509E-02 -3.647467531386E-01 -2.602260354697E-01
H65  2.701647266647E-01  2.169871988289E-01  2.382029795712E-01
H66 -2.701647266647E-01 -2.169871988289E-01 -2.382029795712E-01
H67 -4.380015966594E-01  2.765122687609E-01  2.910491056609E-01
H68  4.380015966594E-01 -2.765122687609E-01 -2.910491056609E-01
H69 -4.161578364669E-01  4.762529821583E-01  3.458478877900E-01
H70  4.161578364669E-01 -4.762529821583E-01 -3.458478877900E-01
H71 -4.175299912396E-01  4.770364465677E-01  2.380954570261E-01
H72  4.175299912396E-01 -4.770364465677E-01 -2.380954570261E-01
H73  4.965576095310E-01 -2.082064621930E-01  3.756056954257E-01
H74 -4.965576095310E-01  2.082064621930E-01 -3.756056954257E-01
H75  4.087885526497E-01 -2.326732047201E-01 -4.719909939245E-01
H76 -4.087885526497E-01  2.326732047201E-01  4.719909939245E-01
H77  3.602041906290E-01 -4.296079116107E-01  4.772625069778E-01
H78 -3.602041906290E-01  4.296079116107E-01 -4.772625069778E-01
H79  1.770364948284E-01 -2.697092256640E-01 -4.821487969704E-01
H80 -1.770364948284E-01  2.697092256640E-01  4.821487969704E-01
H81  1.457330524251E-01  2.935111114616E-02  4.466210905081E-01
H82 -1.457330524251E-01 -2.935111114616E-02 -4.466210905081E-01
H83  3.121306778379E-01  7.341573226821E-02  3.591767712022E-01
H84 -3.121306778379E-01 -7.341573226821E-02 -3.591767712022E-01
H85  3.765543985635E-01  6.642042561662E-02  4.586598660199E-01
H86 -3.765543985635E-01 -6.642042561662E-02 -4.586598660199E-01
H87 -6.724291896816E-02 -3.408561602906E-01  2.812006916394E-01
H88  6.724291896816E-02  3.408561602906E-01 -2.812006916394E-01
H89 -8.587260324273E-02 -4.911130689807E-01  4.121691871156E-01
H90  8.587260324273E-02  4.911130689807E-01 -4.121691871156E-01
H91 -2.760397546064E-01 -3.285674151365E-01  4.245909866047E-01
H92  2.760397546064E-01  3.285674151365E-01 -4.245909866047E-01
H93 -7.667820750803E-02 -2.895758772910E-01  4.679440365640E-01
H94  7.667820750803E-02  2.895758772910E-01 -4.679440365640E-01
H95 -2.249674063110E-02 -7.091352419677E-03  2.769938386392E-01
H96  2.249674063110E-02  7.091352419677E-03 -2.769938386392E-01
H97 -1.008762786826E-01  6.154486292012E-03  3.852408729417E-01
H98  1.008762786826E-01 -6.154486292012E-03 -3.852408729417E-01
H99 -2.518346252912E-01 -6.344391862456E-02  3.186713616612E-01
H100  2.518346252912E-01  6.344391862456E-02 -3.186713616612E-01


#===END

data_OPT_STEP_28

_symmetry_space_group_name_H-M 'P 1'
_cell_length_a      7.24431999
_cell_length_b      7.55141174
_cell_length_c     16.38880119
_cell_angle_alpha   91.649155
_cell_angle_beta   80.140564
_cell_angle_gamma   86.266457

loop_
_atom_site_label
_atom_site_fract_x
_atom_site_fract_y
_atom_site_fract_z
SI1  2.335256875947E-01 -3.011970125517E-01  3.212986951551E-01
SI2 -2.335256875947E-01  3.011970125517E-01 -3.212986951551E-01
C3  4.458488996790E-01 -6.298367893755E-02  8.057276943461E-02
C4 -4.458488996790E-01  6.298367893755E-02 -8.057276943461E-02
C5  3.168977194851E-01  4.528558209892E-02  4.528254335955E-02
C6 -3.168977194851E-01 -4.528558209892E-02 -4.528254335955E-02
C7  1.342063357433E-01  9.011063564709E-02  8.752836706891E-02
C8 -1.342063357433E-01 -9.011063564709E-02 -8.752836706891E-02
C9  6.355030610062E-03  1.935069492502E-01  5.292741788960E-02
C10 -6.355030610062E-03 -1.935069492502E-01 -5.292741788960E-02
C11 -1.796673083600E-01  2.379798283106E-01  9.592477739908E-02
C12  1.796673083600E-01 -2.379798283106E-01 -9.592477739908E-02
C13 -3.043303421629E-01  3.359272656220E-01  5.968533678585E-02
C14  3.043303421629E-01 -3.359272656220E-01 -5.968533678585E-02
C15 -2.514670576079E-01  3.959953428812E-01 -2.181006145733E-02
C16  2.514670576079E-01 -3.959953428812E-01  2.181006145733E-02
C17 -7.573362248502E-02  3.572411494737E-01 -6.484656333724E-02
C18  7.573362248502E-02 -3.572411494737E-01  6.484656333724E-02
C19  5.998922620012E-02  2.550620001851E-01 -2.937233550938E-02
C20 -5.998922620012E-02 -2.550620001851E-01  2.937233550938E-02
C21  2.398346467701E-01  2.122290108110E-01 -7.170532884151E-02
C22 -2.398346467701E-01 -2.122290108110E-01  7.170532884151E-02
C23  3.713460431410E-01  1.087743146760E-01 -3.676596580296E-02
C24 -3.713460431410E-01 -1.087743146760E-01  3.676596580296E-02
C25  3.878956218382E-01 -1.335001342248E-01  1.587507338012E-01
C26 -3.878956218382E-01  1.335001342248E-01 -1.587507338012E-01
C27  3.312002974743E-01 -1.993549331794E-01  2.242848640677E-01
C28 -3.312002974743E-01  1.993549331794E-01 -2.242848640677E-01
C29  3.068710657693E-01  4.515225806644E-01  3.120493466877E-01
C30 -3.068710657693E-01 -4.515225806644E-01 -3.120493466877E-01
C31  2.207613708070E-01  3.577103413088E-01  2.456138113353E-01
C32 -2.207613708070E-01 -3.577103413088E-01 -2.456138113353E-01
C33 -4.795325604028E-01  4.192168365683E-01  2.960145854132E-01
C34  4.795325604028E-01 -4.192168365683E-01 -2.960145854132E-01
C35  3.474395571910E-01 -1.924327684170E-01  4.044035609193E-01
C36 -3.474395571910E-01  1.924327684170E-01 -4.044035609193E-01
C37  3.228577717852E-01 -2.869415839101E-01  4.858236101157E-01
C38 -3.228577717852E-01  2.869415839101E-01 -4.858236101157E-01
C39  2.914787355683E-01  5.535003464732E-03  4.179677952327E-01
C40 -2.914787355683E-01 -5.535003464732E-03 -4.179677952327E-01
C41 -3.270798754928E-02 -2.651704963785E-01  3.341489735996E-01
C42  3.270798754928E-02  2.651704963785E-01 -3.341489735996E-01
C43 -1.227855362174E-01 -3.482622911231E-01  4.136146443235E-01
C44  1.227855362174E-01  3.482622911231E-01 -4.136146443235E-01
C45 -1.055033277698E-01 -7.210860025650E-02  3.283396317680E-01
C46  1.055033277698E-01  7.210860025650E-02 -3.283396317680E-01
H47  9.225618530861E-02  3.836833782261E-02  1.483710498024E-01
H48 -9.225618530861E-02 -3.836833782261E-02 -1.483710498024E-01
H49 -2.206954168120E-01  1.875570988582E-01  1.572124321949E-01
H50  2.206954168120E-01 -1.875570988582E-01 -1.572124321949E-01
H51 -4.466069689691E-01  3.650128594896E-01  9.264396881509E-02
H52  4.466069689691E-01 -3.650128594896E-01 -9.264396881509E-02
H53 -3.533631101331E-01  4.729577154614E-01 -4.985864848898E-02
H54  3.533631101331E-01 -4.729577154614E-01  4.985864848898E-02
H55 -3.540806842508E-02  4.044268506245E-01 -1.267660553939E-01
H56  3.540806842508E-02 -4.044268506245E-01  1.267660553939E-01
H57  2.815211912136E-01  2.587474337699E-01 -1.338397294359E-01
H58 -2.815211912136E-01 -2.587474337699E-01  1.338397294359E-01
H59  2.518540975262E-01  3.983009881240E-01  3.724449242719E-01
H60 -2.518540975262E-01 -3.983009881240E-01 -3.724449242719E-01
H61  2.601243157319E-01  4.161782016798E-01  1.852717332324E-01
H62 -2.601243157319E-01 -4.161782016798E-01 -1.852717332324E-01
H63  6.712016371151E-02  3.651526499347E-01  2.599706733804E-01
H64 -6.712016371151E-02 -3.651526499347E-01 -2.599706733804E-01
H65  2.700141028361E-01  2.168885430790E-01  2.380731625187E-01
H66 -2.700141028361E-01 -2.168885430790E-01 -2.380731625187E-01
H67 -4.380612132866E-01  2.765383124867E-01  2.908850249875E-01
H68  4.380612132866E-01 -2.765383124867E-01 -2.908850249875E-01
H69 -4.160713566460E-01  4.762772387968E-01  3.457327207304E-01
H70  4.160713566460E-01 -4.762772387968E-01 -3.457327207304E-01
H71 -4.174675900418E-01  4.769822628016E-01  2.379742138190E-01
H72  4.174675900418E-01 -4.769822628016E-01 -2.379742138190E-01
H73  4.966689212154E-01 -2.068912950926E-01  3.757291732203E-01
H74 -4.966689212154E-01  2.068912950926E-01 -3.757291732203E-01
H75  4.088283752919E-01 -2.326682990920E-01 -4.718435588814E-01
H76 -4.088283752919E-01  2.326682990920E-01  4.718435588814E-01
H77  3.606741490548E-01 -4.295917608978E-01  4.771884196071E-01
H78 -3.606741490548E-01  4.295917608978E-01 -4.771884196071E-01
H79  1.771314690037E-01 -2.702834706068E-01 -4.820128170320E-01
H80 -1.771314690037E-01  2.702834706068E-01  4.820128170320E-01
H81  1.438902419969E-01  2.873694513334E-02  4.470069429371E-01
H82 -1.438902419969E-01 -2.873694513334E-02 -4.470069429371E-01
H83  3.106040886555E-01  7.443466347921E-02  3.596643403169E-01
H84 -3.106040886555E-01 -7.443466347921E-02 -3.596643403169E-01
H85  3.744858067190E-01  6.726113603970E-02  4.593388206134E-01
H86 -3.744858067190E-01 -6.726113603970E-02 -4.593388206134E-01
H87 -6.713338441533E-02 -3.412074966379E-01  2.811402435466E-01
H88  6.713338441533E-02  3.412074966379E-01 -2.811402435466E-01
H89 -8.549602159526E-02 -4.911307671298E-01  4.122856127064E-01
H90  8.549602159526E-02  4.911307671298E-01 -4.122856127064E-01
H91 -2.762786338026E-01 -3.292186798945E-01  4.242506716083E-01
H92  2.762786338026E-01  3.292186798945E-01 -4.242506716083E-01
H93 -7.767030493915E-02 -2.891586825158E-01  4.680054079328E-01
H94  7.767030493915E-02  2.891586825158E-01 -4.680054079328E-01
H95 -2.281912285635E-02 -7.255019458425E-03  2.770000815919E-01
H96  2.281912285635E-02  7.255019458425E-03 -2.770000815919E-01
H97 -1.011437760603E-01  5.998760850551E-03  3.851870738207E-01
H98  1.011437760603E-01 -5.998760850551E-03 -3.851870738207E-01
H99 -2.520131318636E-01 -6.412773579792E-02  3.186753055949E-01
H100  2.520131318636E-01  6.412773579792E-02 -3.186753055949E-01


#===END

data_OPT_STEP_29

_symmetry_space_group_name_H-M 'P 1'
_cell_length_a      7.23721721
_cell_length_b      7.55708528
_cell_length_c     16.38413689
_cell_angle_alpha   91.726538
_cell_angle_beta   80.168643
_cell_angle_gamma   86.371540

loop_
_atom_site_label
_atom_site_fract_x
_atom_site_fract_y
_atom_site_fract_z
SI1  2.329896336006E-01 -3.006311000543E-01  3.212085312370E-01
SI2 -2.329896336006E-01  3.006311000543E-01 -3.212085312370E-01
C3  4.455537037537E-01 -6.355043987108E-02  8.030482802033E-02
C4 -4.455537037537E-01  6.355043987108E-02 -8.030482802033E-02
C5  3.167330716545E-01  4.479662113714E-02  4.511981315653E-02
C6 -3.167330716545E-01 -4.479662113714E-02 -4.511981315653E-02
C7  1.340518120325E-01  8.966727377440E-02  8.735444947298E-02
C8 -1.340518120325E-01 -8.966727377440E-02 -8.735444947298E-02
C9  6.388872169646E-03  1.936684247478E-01  5.301207520391E-02
C10 -6.388872169646E-03 -1.936684247478E-01 -5.301207520391E-02
C11 -1.796080019020E-01  2.383694649469E-01  9.604290543614E-02
C12  1.796080019020E-01 -2.383694649469E-01 -9.604290543614E-02
C13 -3.040710933025E-01  3.370116559678E-01  6.004917050597E-02
C14  3.040710933025E-01 -3.370116559678E-01 -6.004917050597E-02
C15 -2.511546531374E-01  3.967927542848E-01 -2.146846255716E-02
C16  2.511546531374E-01 -3.967927542848E-01  2.146846255716E-02
C17 -7.560990321238E-02  3.570752691832E-01 -6.479058199911E-02
C18  7.560990321238E-02 -3.570752691832E-01  6.479058199911E-02
C19  5.995291890433E-02  2.545680139007E-01 -2.942925860130E-02
C20 -5.995291890433E-02 -2.545680139007E-01  2.942925860130E-02
C21  2.397013887191E-01  2.113447564753E-01 -7.182362218545E-02
C22 -2.397013887191E-01 -2.113447564753E-01  7.182362218545E-02
C23  3.712635656974E-01  1.082793989995E-01 -3.683167244459E-02
C24 -3.712635656974E-01 -1.082793989995E-01  3.683167244459E-02
C25  3.876491801323E-01 -1.335459493889E-01  1.585615640631E-01
C26 -3.876491801323E-01  1.335459493889E-01 -1.585615640631E-01
C27  3.309733384348E-01 -1.989557532944E-01  2.241926484931E-01
C28 -3.309733384348E-01  1.989557532944E-01 -2.241926484931E-01
C29  3.064035383325E-01  4.523297031987E-01  3.119358029520E-01
C30 -3.064035383325E-01 -4.523297031987E-01 -3.119358029520E-01
C31  2.197955115767E-01  3.579988741819E-01  2.455999609814E-01
C32 -2.197955115767E-01 -3.579988741819E-01 -2.455999609814E-01
C33 -4.798355603628E-01  4.202334963238E-01  2.957411902897E-01
C34  4.798355603628E-01 -4.202334963238E-01 -2.957411902897E-01
C35  3.462570304437E-01 -1.913737080920E-01  4.045889336827E-01
C36 -3.462570304437E-01  1.913737080920E-01 -4.045889336827E-01
C37  3.221272871023E-01 -2.865242775494E-01  4.858776227191E-01
C38 -3.221272871023E-01  2.865242775494E-01 -4.858776227191E-01
C39  2.885634732740E-01  6.050700002702E-03  4.185106576442E-01
C40 -2.885634732740E-01 -6.050700002702E-03 -4.185106576442E-01
C41 -3.342588778240E-02 -2.653004675436E-01  3.338958116437E-01
C42  3.342588778240E-02  2.653004675436E-01 -3.338958116437E-01
C43 -1.237009088250E-01 -3.486126446105E-01  4.132321963719E-01
C44  1.237009088250E-01  3.486126446105E-01 -4.132321963719E-01
C45 -1.064825137009E-01 -7.274237468208E-02  3.282270061228E-01
C46  1.064825137009E-01  7.274237468208E-02 -3.282270061228E-01
H47  9.213736818851E-02  3.853688279159E-02  1.483728208145E-01
H48 -9.213736818851E-02 -3.853688279159E-02 -1.483728208145E-01
H49 -2.206793910181E-01  1.882601970950E-01  1.573789421232E-01
H50  2.206793910181E-01 -1.882601970950E-01 -1.573789421232E-01
H51 -4.463356554153E-01  3.659650964797E-01  9.286068257664E-02
H52  4.463356554153E-01 -3.659650964797E-01 -9.286068257664E-02
H53 -3.530331572131E-01  4.734965057701E-01 -4.964528068953E-02
H54  3.530331572131E-01 -4.734965057701E-01  4.964528068953E-02
H55 -3.522067205596E-02  4.040370752594E-01 -1.267318041634E-01
H56  3.522067205596E-02 -4.040370752594E-01  1.267318041634E-01
H57  2.813630552793E-01  2.575750404561E-01 -1.339741145496E-01
H58 -2.813630552793E-01 -2.575750404561E-01  1.339741145496E-01
H59  2.516439424470E-01  3.993232307185E-01  3.724132669233E-01
H60 -2.516439424470E-01 -3.993232307185E-01 -3.724132669233E-01
H61  2.586812616732E-01  4.163441469910E-01  1.852061456012E-01
H62 -2.586812616732E-01 -4.163441469910E-01 -1.852061456012E-01
H63  6.605142116031E-02  3.649535279808E-01  2.601350935923E-01
H64 -6.605142116031E-02 -3.649535279808E-01 -2.601350935923E-01
H65  2.692453414046E-01  2.173211897925E-01  2.380318473020E-01
H66 -2.692453414046E-01 -2.173211897925E-01 -2.380318473020E-01
H67 -4.384557954049E-01  2.776035254349E-01  2.909410687665E-01
H68  4.384557954049E-01 -2.776035254349E-01 -2.909410687665E-01
H69 -4.158982979473E-01  4.781304976621E-01  3.452337715140E-01
H70  4.158982979473E-01 -4.781304976621E-01 -3.452337715140E-01
H71 -4.180167093329E-01  4.772272181305E-01  2.374574938833E-01
H72  4.180167093329E-01 -4.772272181305E-01 -2.374574938833E-01
H73  4.958124086272E-01 -2.043972957252E-01  3.760080488750E-01
H74 -4.958124086272E-01  2.043972957252E-01 -3.760080488750E-01
H75  4.075131250569E-01 -2.316206454816E-01 -4.715662592298E-01
H76 -4.075131250569E-01  2.316206454816E-01  4.715662592298E-01
H77  3.612047044372E-01 -4.288260305938E-01  4.769697505276E-01
H78 -3.612047044372E-01  4.288260305938E-01 -4.769697505276E-01
H79  1.760774427601E-01 -2.713421626493E-01 -4.820604261918E-01
H80 -1.760774427601E-01  2.713421626493E-01  4.820604261918E-01
H81  1.401692838844E-01  2.769296639170E-02  4.468937575422E-01
H82 -1.401692838844E-01 -2.769296639170E-02 -4.468937575422E-01
H83  3.087570250677E-01  7.550764225665E-02  3.603788458136E-01
H84 -3.087570250677E-01 -7.550764225665E-02 -3.603788458136E-01
H85  3.698642982120E-01  6.847217968936E-02  4.607253670652E-01
H86 -3.698642982120E-01 -6.847217968936E-02 -4.607253670652E-01
H87 -6.768343582977E-02 -3.412206464103E-01  2.807787303759E-01
H88  6.768343582977E-02  3.412206464103E-01 -2.807787303759E-01
H89 -8.542522058229E-02 -4.910693309441E-01  4.119856309641E-01
H90  8.542522058229E-02  4.910693309441E-01 -4.119856309641E-01
H91 -2.773587595875E-01 -3.306531254134E-01  4.235545001014E-01
H92  2.773587595875E-01  3.306531254134E-01 -4.235545001014E-01
H93 -7.957531311596E-02 -2.888526004291E-01  4.677785006427E-01
H94  7.957531311596E-02  2.888526004291E-01 -4.677785006427E-01
H95 -2.346452969554E-02 -7.478418833066E-03  2.771377023512E-01
H96  2.346452969554E-02  7.478418833066E-03 -2.771377023512E-01
H97 -1.026900119354E-01  5.055387654728E-03  3.851976734907E-01
H98  1.026900119354E-01 -5.055387654728E-03 -3.851976734907E-01
H99 -2.528492841639E-01 -6.527368782048E-02  3.182978255990E-01
H100  2.528492841639E-01  6.527368782048E-02 -3.182978255990E-01


#===END

data_OPT_STEP_30

_symmetry_space_group_name_H-M 'P 1'
_cell_length_a      7.23055074
_cell_length_b      7.55531452
_cell_length_c     16.38148474
_cell_angle_alpha   91.835632
_cell_angle_beta   80.221791
_cell_angle_gamma   86.529641

loop_
_atom_site_label
_atom_site_fract_x
_atom_site_fract_y
_atom_site_fract_z
SI1  2.325387200512E-01 -3.000284619190E-01  3.211912149941E-01
SI2 -2.325387200512E-01  3.000284619190E-01 -3.211912149941E-01
C3  4.454510468374E-01 -6.365994305255E-02  8.020612906304E-02
C4 -4.454510468374E-01  6.365994305255E-02 -8.020612906304E-02
C5  3.168331801596E-01  4.491858180456E-02  4.513196061475E-02
C6 -3.168331801596E-01 -4.491858180456E-02 -4.513196061475E-02
C7  1.342160062815E-01  8.982074061832E-02  8.736621570214E-02
C8 -1.342160062815E-01 -8.982074061832E-02 -8.736621570214E-02
C9  6.562923063928E-03  1.935567282482E-01  5.300403023126E-02
C10 -6.562923063928E-03 -1.935567282482E-01 -5.300403023126E-02
C11 -1.792702448693E-01  2.385773630812E-01  9.612448700885E-02
C12  1.792702448693E-01 -2.385773630812E-01 -9.612448700885E-02
C13 -3.036717128289E-01  3.371330286475E-01  6.013912836314E-02
C14  3.036717128289E-01 -3.371330286475E-01 -6.013912836314E-02
C15 -2.507929886087E-01  3.967026289994E-01 -2.136639547383E-02
C16  2.507929886087E-01 -3.967026289994E-01  2.136639547383E-02
C17 -7.533421932128E-02  3.571041293355E-01 -6.461128693809E-02
C18  7.533421932128E-02 -3.571041293355E-01  6.461128693809E-02
C19  6.009884925261E-02  2.543874219703E-01 -2.937886776824E-02
C20 -6.009884925261E-02 -2.543874219703E-01  2.937886776824E-02
C21  2.398172885414E-01  2.112628005861E-01 -7.172696014288E-02
C22 -2.398172885414E-01 -2.112628005861E-01  7.172696014288E-02
C23  3.714391875191E-01  1.085526533785E-01 -3.670149674483E-02
C24 -3.714391875191E-01 -1.085526533785E-01  3.670149674483E-02
C25  3.874932915033E-01 -1.333292886296E-01  1.585053560337E-01
C26 -3.874932915033E-01  1.333292886296E-01 -1.585053560337E-01
C27  3.308945604948E-01 -1.984161431991E-01  2.242214332763E-01
C28 -3.308945604948E-01  1.984161431991E-01 -2.242214332763E-01
C29  3.059279898470E-01  4.529488704559E-01  3.119121260981E-01
C30 -3.059279898470E-01 -4.529488704559E-01 -3.119121260981E-01
C31  2.188124943157E-01  3.579642712243E-01  2.456475259809E-01
C32 -2.188124943157E-01 -3.579642712243E-01 -2.456475259809E-01
C33 -4.801947329384E-01  4.211902134625E-01  2.955867336133E-01
C34  4.801947329384E-01 -4.211902134625E-01 -2.955867336133E-01
C35  3.450834703677E-01 -1.901762304684E-01  4.049032075504E-01
C36 -3.450834703677E-01  1.901762304684E-01 -4.049032075504E-01
C37  3.210936938600E-01 -2.860047262103E-01  4.860050411493E-01
C38 -3.210936938600E-01  2.860047262103E-01 -4.860050411493E-01
C39  2.860004738446E-01  6.811409370939E-03  4.191368955671E-01
C40 -2.860004738446E-01 -6.811409370939E-03 -4.191368955671E-01
C41 -3.401076361703E-02 -2.654269419994E-01  3.335957847006E-01
C42  3.401076361703E-02  2.654269419994E-01 -3.335957847006E-01
C43 -1.246594132128E-01 -3.484540390164E-01  4.129240383525E-01
C44  1.246594132128E-01  3.484540390164E-01 -4.129240383525E-01
C45 -1.071801700776E-01 -7.326406109894E-02  3.277169394964E-01
C46  1.071801700776E-01  7.326406109894E-02 -3.277169394964E-01
H47  9.220695639380E-02  3.837804532669E-02  1.482140724802E-01
H48 -9.220695639380E-02 -3.837804532669E-02 -1.482140724802E-01
H49 -2.202668158222E-01  1.887834718183E-01  1.575145819162E-01
H50  2.202668158222E-01 -1.887834718183E-01 -1.575145819162E-01
H51 -4.457310401386E-01  3.667266675186E-01  9.316085951713E-02
H52  4.457310401386E-01 -3.667266675186E-01 -9.316085951713E-02
H53 -3.525133072901E-01  4.735638322891E-01 -4.952459360231E-02
H54  3.525133072901E-01 -4.735638322891E-01  4.952459360231E-02
H55 -3.506979778583E-02  4.036419620489E-01 -1.266743308478E-01
H56  3.506979778583E-02 -4.036419620489E-01  1.266743308478E-01
H57  2.814964493666E-01  2.576373141185E-01 -1.337747738066E-01
H58 -2.814964493666E-01 -2.576373141185E-01  1.337747738066E-01
H59  2.514353056562E-01  4.000630633986E-01  3.724528062336E-01
H60 -2.514353056562E-01 -4.000630633986E-01 -3.724528062336E-01
H61  2.570002529449E-01  4.164703526440E-01  1.852705632091E-01
H62 -2.570002529449E-01 -4.164703526440E-01 -1.852705632091E-01
H63  6.502064603173E-02  3.641402836159E-01  2.603651680825E-01
H64 -6.502064603173E-02 -3.641402836159E-01 -2.603651680825E-01
H65  2.686255457410E-01  2.174268925140E-01  2.379283339792E-01
H66 -2.686255457410E-01 -2.174268925140E-01 -2.379283339792E-01
H67 -4.389266625142E-01  2.785645894903E-01  2.908645621765E-01
H68  4.389266625142E-01 -2.785645894903E-01 -2.908645621765E-01
H69 -4.158248726256E-01  4.795795579926E-01  3.449653074729E-01
H70  4.158248726256E-01 -4.795795579926E-01 -3.449653074729E-01
H71 -4.186023958630E-01  4.779142848154E-01  2.372188168782E-01
H72  4.186023958630E-01 -4.779142848154E-01 -2.372188168782E-01
H73  4.948720547154E-01 -2.019007652357E-01  3.765593187332E-01
H74 -4.948720547154E-01  2.019007652357E-01 -3.765593187332E-01
H75  4.058206573883E-01 -2.306086038082E-01 -4.711233482145E-01
H76 -4.058206573883E-01  2.306086038082E-01  4.711233482145E-01
H77  3.613194280932E-01 -4.280661231904E-01  4.767461447566E-01
H78 -3.613194280932E-01  4.280661231904E-01 -4.767461447566E-01
H79  1.747642458226E-01 -2.722296486470E-01 -4.821278764351E-01
H80 -1.747642458226E-01  2.722296486470E-01  4.821278764351E-01
H81  1.372466558548E-01  2.721117716794E-02  4.471906580370E-01
H82 -1.372466558548E-01 -2.721117716794E-02 -4.471906580370E-01
H83  3.063785489218E-01  7.663864512482E-02  3.611669988798E-01
H84 -3.063785489218E-01 -7.663864512482E-02 -3.611669988798E-01
H85  3.664469432298E-01  6.980901207804E-02  4.617409636900E-01
H86 -3.664469432298E-01 -6.980901207804E-02 -4.617409636900E-01
H87 -6.800978096996E-02 -3.418024104000E-01  2.804531777763E-01
H88  6.800978096996E-02  3.418024104000E-01 -2.804531777763E-01
H89 -8.509179535474E-02 -4.905644758182E-01  4.120979910148E-01
H90  8.509179535474E-02  4.905644758182E-01 -4.120979910148E-01
H91 -2.784815886264E-01 -3.321631625254E-01  4.227516709547E-01
H92  2.784815886264E-01  3.321631625254E-01 -4.227516709547E-01
H93 -8.191654184625E-02 -2.871000645138E-01  4.675716545846E-01
H94  8.191654184625E-02  2.871000645138E-01 -4.675716545846E-01
H95 -2.327632157232E-02 -7.793637296784E-03  2.769448463952E-01
H96  2.327632157232E-02  7.793637296784E-03 -2.769448463952E-01
H97 -1.046414904118E-01  4.683089212719E-03  3.848464502599E-01
H98  1.046414904118E-01 -4.683089212719E-03 -3.848464502599E-01
H99 -2.531709771811E-01 -6.647623791570E-02  3.171246155260E-01
H100  2.531709771811E-01  6.647623791570E-02 -3.171246155260E-01


#===END

data_OPT_STEP_31

_symmetry_space_group_name_H-M 'P 1'
_cell_length_a      7.20801574
_cell_length_b      7.56385712
_cell_length_c     16.39701840
_cell_angle_alpha   91.824452
_cell_angle_beta   80.431860
_cell_angle_gamma   86.979025

loop_
_atom_site_label
_atom_site_fract_x
_atom_site_fract_y
_atom_site_fract_z
SI1  2.328888258556E-01 -2.985841456370E-01  3.212674961328E-01
SI2 -2.328888258556E-01  2.985841456370E-01 -3.212674961328E-01
C3  4.454962549013E-01 -6.361227912131E-02  8.007536672025E-02
C4 -4.454962549013E-01  6.361227912131E-02 -8.007536672025E-02
C5  3.169667034840E-01  4.460845568393E-02  4.496700010113E-02
C6 -3.169667034840E-01 -4.460845568393E-02 -4.496700010113E-02
C7  1.346152752275E-01  8.998218516723E-02  8.731434257235E-02
C8 -1.346152752275E-01 -8.998218516723E-02 -8.731434257235E-02
C9  7.068430957975E-03  1.936453068988E-01  5.302678560930E-02
C10 -7.068430957975E-03 -1.936453068988E-01 -5.302678560930E-02
C11 -1.784834550595E-01  2.391115670876E-01  9.627511411186E-02
C12  1.784834550595E-01 -2.391115670876E-01 -9.627511411186E-02
C13 -3.026802316596E-01  3.381165958094E-01  6.049948135925E-02
C14  3.026802316596E-01 -3.381165958094E-01 -6.049948135925E-02
C15 -2.499004611171E-01  3.973281322125E-01 -2.102806515129E-02
C16  2.499004611171E-01 -3.973281322125E-01  2.102806515129E-02
C17 -7.490264426933E-02  3.566818471332E-01 -6.456821513285E-02
C18  7.490264426933E-02 -3.566818471332E-01  6.456821513285E-02
C19  6.029931933423E-02  2.536614481396E-01 -2.948632539713E-02
C20 -6.029931933423E-02 -2.536614481396E-01  2.948632539713E-02
C21  2.399201610847E-01  2.108691609553E-01 -7.165392107772E-02
C22 -2.399201610847E-01 -2.108691609553E-01  7.165392107772E-02
C23  3.717544593158E-01  1.090929771995E-01 -3.646498746985E-02
C24 -3.717544593158E-01 -1.090929771995E-01  3.646498746985E-02
C25  3.877108175555E-01 -1.324218471860E-01  1.585342341148E-01
C26 -3.877108175555E-01  1.324218471860E-01 -1.585342341148E-01
C27  3.315338660336E-01 -1.968773788360E-01  2.244243829422E-01
C28 -3.315338660336E-01  1.968773788360E-01 -2.244243829422E-01
C29  3.056760924221E-01  4.550215825618E-01  3.121444922479E-01
C30 -3.056760924221E-01 -4.550215825618E-01 -3.121444922479E-01
C31  2.183121899664E-01  3.599078199466E-01  2.457001577901E-01
C32 -2.183121899664E-01 -3.599078199466E-01 -2.457001577901E-01
C33 -4.801649500993E-01  4.239790496274E-01  2.962872874275E-01
C34  4.801649500993E-01 -4.239790496274E-01 -2.962872874275E-01
C35  3.447735459318E-01 -1.879058674818E-01  4.053520919677E-01
C36 -3.447735459318E-01  1.879058674818E-01 -4.053520919677E-01
C37  3.211462128019E-01 -2.851066784809E-01  4.860647163315E-01
C38 -3.211462128019E-01  2.851066784809E-01 -4.860647163315E-01
C39  2.837564564079E-01  7.993931690290E-03  4.198755209725E-01
C40 -2.837564564079E-01 -7.993931690290E-03 -4.198755209725E-01
C41 -3.393729734925E-02 -2.660564023100E-01  3.330576920536E-01
C42  3.393729734925E-02  2.660564023100E-01 -3.330576920536E-01
C43 -1.250885925140E-01 -3.489548410872E-01  4.123148008501E-01
C44  1.250885925140E-01  3.489548410872E-01 -4.123148008501E-01
C45 -1.073565803755E-01 -7.507123490257E-02  3.265113101015E-01
C46  1.073565803755E-01  7.507123490257E-02 -3.265113101015E-01
H47  9.260335029585E-02  3.893370229227E-02  1.482189685691E-01
H48 -9.260335029585E-02 -3.893370229227E-02 -1.482189685691E-01
H49 -2.194451086251E-01  1.895084661552E-01  1.576565053052E-01
H50  2.194451086251E-01 -1.895084661552E-01 -1.576565053052E-01
H51 -4.444919427499E-01  3.679667665636E-01  9.357507369634E-02
H52  4.444919427499E-01 -3.679667665636E-01 -9.357507369634E-02
H53 -3.514119538438E-01  4.744780541986E-01 -4.911736959377E-02
H54  3.514119538438E-01 -4.744780541986E-01  4.911736959377E-02
H55 -3.462916445369E-02  4.031106724694E-01 -1.265996300581E-01
H56  3.462916445369E-02 -4.031106724694E-01  1.265996300581E-01
H57  2.812974772390E-01  2.566528731583E-01 -1.337673826706E-01
H58 -2.812974772390E-01 -2.566528731583E-01  1.337673826706E-01
H59  2.507490108326E-01  4.018905726765E-01  3.725233146279E-01
H60 -2.507490108326E-01 -4.018905726765E-01 -3.725233146279E-01
H61  2.558573780780E-01  4.194172584548E-01  1.856638165934E-01
H62 -2.558573780780E-01 -4.194172584548E-01 -1.856638165934E-01
H63  6.430396057284E-02  3.642860563546E-01  2.602524024165E-01
H64 -6.430396057284E-02 -3.642860563546E-01 -2.602524024165E-01
H65  2.688612176586E-01  2.202557189359E-01  2.376487204327E-01
H66 -2.688612176586E-01 -2.202557189359E-01 -2.376487204327E-01
H67 -4.394541998382E-01  2.818356605229E-01  2.914406646106E-01
H68  4.394541998382E-01 -2.818356605229E-01 -2.914406646106E-01
H69 -4.155449854208E-01  4.819396792253E-01  3.458228156636E-01
H70  4.155449854208E-01 -4.819396792253E-01 -3.458228156636E-01
H71 -4.180421214627E-01  4.811712978503E-01  2.382338565849E-01
H72  4.180421214627E-01 -4.811712978503E-01 -2.382338565849E-01
H73  4.948116567415E-01 -1.971987105575E-01  3.775689756392E-01
H74 -4.948116567415E-01  1.971987105575E-01 -3.775689756392E-01
H75  4.058846854912E-01 -2.299647586017E-01 -4.707459722503E-01
H76 -4.058846854912E-01  2.299647586017E-01  4.707459722503E-01
H77  3.617959668749E-01 -4.263772199725E-01  4.763308296644E-01
H78 -3.617959668749E-01  4.263772199725E-01 -4.763308296644E-01
H79  1.748725466067E-01 -2.731097529563E-01 -4.824169901381E-01
H80 -1.748725466067E-01  2.731097529563E-01  4.824169901381E-01
H81  1.346925722179E-01  2.588522921439E-02  4.475605632663E-01
H82 -1.346925722179E-01 -2.588522921439E-02 -4.475605632663E-01
H83  3.034838287895E-01  7.884308460907E-02  3.622305526564E-01
H84 -3.034838287895E-01 -7.884308460907E-02 -3.622305526564E-01
H85  3.636691458322E-01  7.174229562567E-02  4.627426916545E-01
H86 -3.636691458322E-01 -7.174229562567E-02 -4.627426916545E-01
H87 -6.774533824421E-02 -3.431975304509E-01  2.800310567282E-01
H88  6.774533824421E-02  3.431975304509E-01 -2.800310567282E-01
H89 -8.367561436842E-02 -4.901171345686E-01  4.123326114938E-01
H90  8.367561436842E-02  4.901171345686E-01 -4.123326114938E-01
H91 -2.792411258681E-01 -3.356959748490E-01  4.211244777247E-01
H92  2.792411258681E-01  3.356959748490E-01 -4.211244777247E-01
H93 -8.434432723860E-02 -2.851757771420E-01  4.669976380251E-01
H94  8.434432723860E-02  2.851757771420E-01 -4.669976380251E-01
H95 -2.218375123837E-02 -9.007852370803E-03  2.762758085197E-01
H96  2.218375123837E-02  9.007852370803E-03 -2.762758085197E-01
H97 -1.066367115264E-01  3.017985571320E-03  3.836905065667E-01
H98  1.066367115264E-01 -3.017985571320E-03 -3.836905065667E-01
H99 -2.528187608789E-01 -6.998496362224E-02  3.147702097702E-01
H100  2.528187608789E-01  6.998496362224E-02 -3.147702097702E-01


#===END

data_OPT_STEP_32

_symmetry_space_group_name_H-M 'P 1'
_cell_length_a      7.20261275
_cell_length_b      7.55516379
_cell_length_c     16.37231945
_cell_angle_alpha   92.110575
_cell_angle_beta   80.463500
_cell_angle_gamma   87.215871

loop_
_atom_site_label
_atom_site_fract_x
_atom_site_fract_y
_atom_site_fract_z
SI1  2.334932653708E-01 -2.986062325911E-01  3.212414271824E-01
SI2 -2.334932653708E-01  2.986062325911E-01 -3.212414271824E-01
C3  4.455354390293E-01 -6.314834948850E-02  8.021172991354E-02
C4 -4.455354390293E-01  6.314834948850E-02 -8.021172991354E-02
C5  3.168421211245E-01  4.388810654203E-02  4.484526057576E-02
C6 -3.168421211245E-01 -4.388810654203E-02 -4.484526057576E-02
C7  1.347296004346E-01  8.998350063650E-02  8.748358221679E-02
C8 -1.347296004346E-01 -8.998350063650E-02 -8.748358221679E-02
C9  7.498305099984E-03  1.937576119199E-01  5.330746623852E-02
C10 -7.498305099984E-03 -1.937576119199E-01 -5.330746623852E-02
C11 -1.777023871684E-01  2.398435710472E-01  9.674187936007E-02
C12  1.777023871684E-01 -2.398435710472E-01 -9.674187936007E-02
C13 -3.016824027444E-01  3.384374393864E-01  6.090639482668E-02
C14  3.016824027444E-01 -3.384374393864E-01 -6.090639482668E-02
C15 -2.489957807967E-01  3.969079592071E-01 -2.076334589425E-02
C16  2.489957807967E-01 -3.969079592071E-01  2.076334589425E-02
C17 -7.423407120057E-02  3.562439569960E-01 -6.427230089242E-02
C18  7.423407120057E-02 -3.562439569960E-01  6.427230089242E-02
C19  6.073359828545E-02  2.533715990387E-01 -2.925424828800E-02
C20 -6.073359828545E-02 -2.533715990387E-01  2.925424828800E-02
C21  2.399742828375E-01  2.096119214501E-01 -7.178607481713E-02
C22 -2.399742828375E-01 -2.096119214501E-01  7.178607481713E-02
C23  3.714407183109E-01  1.073702901255E-01 -3.686711295971E-02
C24 -3.714407183109E-01 -1.073702901255E-01  3.686711295971E-02
C25  3.878548752835E-01 -1.320185025830E-01  1.586400869232E-01
C26 -3.878548752835E-01  1.320185025830E-01 -1.586400869232E-01
C27  3.325093175813E-01 -1.964928715253E-01  2.245732618175E-01
C28 -3.325093175813E-01  1.964928715253E-01 -2.245732618175E-01
C29  3.060143933628E-01  4.548731082307E-01  3.115438357137E-01
C30 -3.060143933628E-01 -4.548731082307E-01 -3.115438357137E-01
C31  2.176667129401E-01  3.594572791160E-01  2.450969620604E-01
C32 -2.176667129401E-01 -3.594572791160E-01 -2.450969620604E-01
C33 -4.798269928782E-01  4.237472710703E-01  2.951609855670E-01
C34  4.798269928782E-01 -4.237472710703E-01 -2.951609855670E-01
C35  3.437210528966E-01 -1.869648495077E-01  4.061389841430E-01
C36 -3.437210528966E-01  1.869648495077E-01 -4.061389841430E-01
C37  3.192640475827E-01 -2.850132373234E-01  4.865431373141E-01
C38 -3.192640475827E-01  2.850132373234E-01 -4.865431373141E-01
C39  2.800209749449E-01  8.345630762643E-03  4.212411451179E-01
C40 -2.800209749449E-01 -8.345630762643E-03 -4.212411451179E-01
C41 -3.355242268921E-02 -2.672964572618E-01  3.325070184751E-01
C42  3.355242268921E-02  2.672964572618E-01 -3.325070184751E-01
C43 -1.257740338770E-01 -3.492231411868E-01  4.118375064917E-01
C44  1.257740338770E-01  3.492231411868E-01 -4.118375064917E-01
C45 -1.079944340103E-01 -7.674371412711E-02  3.252241830954E-01
C46  1.079944340103E-01  7.674371412711E-02 -3.252241830954E-01
H47  9.239721885747E-02  3.854203179714E-02  1.481932871278E-01
H48 -9.239721885747E-02 -3.854203179714E-02 -1.481932871278E-01
H49 -2.184568207675E-01  1.911988839543E-01  1.583830316948E-01
H50  2.184568207675E-01 -1.911988839543E-01 -1.583830316948E-01
H51 -4.430558905743E-01  3.694471144655E-01  9.436324022710E-02
H52  4.430558905743E-01 -3.694471144655E-01 -9.436324022710E-02
H53 -3.501097978885E-01  4.742644999214E-01 -4.884103188614E-02
H54  3.501097978885E-01 -4.742644999214E-01  4.884103188614E-02
H55 -3.406563325110E-02  4.020703108305E-01 -1.264689272934E-01
H56  3.406563325110E-02 -4.020703108305E-01  1.264689272934E-01
H57  2.815967020820E-01  2.560185740836E-01 -1.336493998885E-01
H58 -2.815967020820E-01 -2.560185740836E-01  1.336493998885E-01
H59  2.514997729133E-01  4.016767368543E-01  3.719380531602E-01
H60 -2.514997729133E-01 -4.016767368543E-01 -3.719380531602E-01
H61  2.562848758038E-01  4.178671443972E-01  1.847205709511E-01
H62 -2.562848758038E-01 -4.178671443972E-01 -1.847205709511E-01
H63  6.343186034180E-02  3.652768885082E-01  2.597254729753E-01
H64 -6.343186034180E-02 -3.652768885082E-01 -2.597254729753E-01
H65  2.668001938625E-01  2.190650805322E-01  2.373022247820E-01
H66 -2.668001938625E-01 -2.190650805322E-01 -2.373022247820E-01
H67 -4.396889964223E-01  2.814218896577E-01  2.900824213511E-01
H68  4.396889964223E-01 -2.814218896577E-01 -2.900824213511E-01
H69 -4.142551888757E-01  4.819054701013E-01  3.446138442654E-01
H70  4.142551888757E-01 -4.819054701013E-01 -3.446138442654E-01
H71 -4.180831476089E-01  4.807349635668E-01  2.369961964654E-01
H72  4.180831476089E-01 -4.807349635668E-01 -2.369961964654E-01
H73  4.943835331050E-01 -1.941807598535E-01  3.789935666973E-01
H74 -4.943835331050E-01  1.941807598535E-01 -3.789935666973E-01
H75  4.025706122736E-01 -2.293118911924E-01 -4.695326014363E-01
H76 -4.025706122736E-01  2.293118911924E-01  4.695326014363E-01
H77  3.613748544040E-01 -4.258533636745E-01  4.761768697497E-01
H78 -3.613748544040E-01  4.258533636745E-01 -4.761768697497E-01
H79  1.724171165548E-01 -2.748661708642E-01 -4.824855375771E-01
H80 -1.724171165548E-01  2.748661708642E-01  4.824855375771E-01
H81  1.302861418380E-01  2.397805726654E-02  4.485901442769E-01
H82 -1.302861418380E-01 -2.397805726654E-02 -4.485901442769E-01
H83  2.997587100678E-01  7.984610445051E-02  3.637913304964E-01
H84 -2.997587100678E-01 -7.984610445051E-02 -3.637913304964E-01
H85  3.584142936911E-01  7.342283035087E-02  4.646467069123E-01
H86 -3.584142936911E-01 -7.342283035087E-02 -4.646467069123E-01
H87 -6.625288514602E-02 -3.462466096112E-01  2.794138404002E-01
H88  6.625288514602E-02  3.462466096112E-01 -2.794138404002E-01
H89 -8.149059910518E-02 -4.896531465379E-01  4.129333224081E-01
H90  8.149059910518E-02  4.896531465379E-01 -4.129333224081E-01
H91 -2.801094348638E-01 -3.395415652487E-01  4.192392518050E-01
H92  2.801094348638E-01  3.395415652487E-01 -4.192392518050E-01
H93 -8.873073144907E-02 -2.816298445878E-01  4.668128843014E-01
H94  8.873073144907E-02  2.816298445878E-01 -4.668128843014E-01
H95 -2.198876554871E-02 -1.055004876573E-02  2.752749987339E-01
H96  2.198876554871E-02  1.055004876573E-02 -2.752749987339E-01
H97 -1.096038322113E-01  2.713248473516E-03  3.824841651540E-01
H98  1.096038322113E-01 -2.713248473516E-03 -3.824841651540E-01
H99 -2.527410069862E-01 -7.345884101942E-02  3.125186479689E-01
H100  2.527410069862E-01  7.345884101942E-02 -3.125186479689E-01


#===END

data_OPT_STEP_33

_symmetry_space_group_name_H-M 'P 1'
_cell_length_a      7.19348348
_cell_length_b      7.56584312
_cell_length_c     16.40677217
_cell_angle_alpha   91.749891
_cell_angle_beta   80.479332
_cell_angle_gamma   87.265169

loop_
_atom_site_label
_atom_site_fract_x
_atom_site_fract_y
_atom_site_fract_z
SI1  2.345844545540E-01 -2.979774072628E-01  3.215179462064E-01
SI2 -2.345844545540E-01  2.979774072628E-01 -3.215179462064E-01
C3  4.458510589402E-01 -6.305603964931E-02  8.027017171614E-02
C4 -4.458510589402E-01  6.305603964931E-02 -8.027017171614E-02
C5  3.176206308222E-01  4.605651770838E-02  4.552821907434E-02
C6 -3.176206308222E-01 -4.605651770838E-02 -4.552821907434E-02
C7  1.349737142204E-01  8.956129531822E-02  8.740333026894E-02
C8 -1.349737142204E-01 -8.956129531822E-02 -8.740333026894E-02
C9  7.284264156038E-03  1.923458354815E-01  5.288617310067E-02
C10 -7.284264156038E-03 -1.923458354815E-01 -5.288617310067E-02
C11 -1.779251098535E-01  2.377195534413E-01  9.610169016485E-02
C12  1.779251098535E-01 -2.377195534413E-01 -9.610169016485E-02
C13 -3.019767148127E-01  3.365858680908E-01  6.026601358190E-02
C14  3.019767148127E-01 -3.365858680908E-01 -6.026601358190E-02
C15 -2.494574906945E-01  3.961456044127E-01 -2.110472922327E-02
C16  2.494574906945E-01 -3.961456044127E-01  2.110472922327E-02
C17 -7.455349140855E-02  3.568998922866E-01 -6.413639474589E-02
C18  7.455349140855E-02 -3.568998922866E-01  6.413639474589E-02
C19  6.063823424352E-02  2.539639473361E-01 -2.910392650002E-02
C20 -6.063823424352E-02 -2.539639473361E-01  2.910392650002E-02
C21  2.398721007964E-01  2.106286804776E-01 -7.151499808616E-02
C22 -2.398721007964E-01 -2.106286804776E-01  7.151499808616E-02
C23  3.714802675534E-01  1.080856906891E-01 -3.667416732497E-02
C24 -3.714802675534E-01 -1.080856906891E-01  3.667416732497E-02
C25  3.887379575416E-01 -1.314434972510E-01  1.588583228473E-01
C26 -3.887379575416E-01  1.314434972510E-01 -1.588583228473E-01
C27  3.340277401326E-01 -1.957747209621E-01  2.249016732899E-01
C28 -3.340277401326E-01  1.957747209621E-01 -2.249016732899E-01
C29  3.064398762753E-01  4.558163856233E-01  3.123532693549E-01
C30 -3.064398762753E-01 -4.558163856233E-01 -3.123532693549E-01
C31  2.169055325822E-01  3.607115100217E-01  2.465447148430E-01
C32 -2.169055325822E-01 -3.607115100217E-01 -2.465447148430E-01
C33 -4.792539355708E-01  4.242854306108E-01  2.956992878298E-01
C34  4.792539355708E-01 -4.242854306108E-01 -2.956992878298E-01
C35  3.439425698385E-01 -1.864144176159E-01  4.063420356471E-01
C36 -3.439425698385E-01  1.864144176159E-01 -4.063420356471E-01
C37  3.181870625444E-01 -2.845176606923E-01  4.866025949452E-01
C38 -3.181870625444E-01  2.845176606923E-01 -4.866025949452E-01
C39  2.797086299555E-01  8.060883808506E-03  4.207069923652E-01
C40 -2.797086299555E-01 -8.060883808506E-03 -4.207069923652E-01
C41 -3.274324036762E-02 -2.675283486495E-01  3.322803980478E-01
C42  3.274324036762E-02  2.675283486495E-01 -3.322803980478E-01
C43 -1.256379079564E-01 -3.503963027849E-01  4.113264269432E-01
C44  1.256379079564E-01  3.503963027849E-01 -4.113264269432E-01
C45 -1.083427459156E-01 -7.765831789379E-02  3.245223469234E-01
C46  1.083427459156E-01  7.765831789379E-02 -3.245223469234E-01
H47  9.285075023417E-02  3.742414872339E-02  1.479636276699E-01
H48 -9.285075023417E-02 -3.742414872339E-02 -1.479636276699E-01
H49 -2.184072748030E-01  1.889661749492E-01  1.577696421706E-01
H50  2.184072748030E-01 -1.889661749492E-01 -1.577696421706E-01
H51 -4.431871184392E-01  3.684103320943E-01  9.384411434601E-02
H52  4.431871184392E-01 -3.684103320943E-01 -9.384411434601E-02
H53 -3.505235367204E-01  4.749238818403E-01 -4.862654176469E-02
H54  3.505235367204E-01 -4.749238818403E-01  4.862654176469E-02
H55 -3.457383234669E-02  4.032345648235E-01 -1.261926268949E-01
H56  3.457383234669E-02 -4.032345648235E-01  1.261926268949E-01
H57  2.813115522436E-01  2.573636160334E-01 -1.332654474316E-01
H58 -2.813115522436E-01 -2.573636160334E-01  1.332654474316E-01
H59  2.521777988224E-01  4.026644282763E-01  3.728531005841E-01
H60 -2.521777988224E-01 -4.026644282763E-01 -3.728531005841E-01
H61  2.547759684873E-01  4.191785337183E-01  1.861281420282E-01
H62 -2.547759684873E-01 -4.191785337183E-01 -1.861281420282E-01
H63  6.258654348720E-02  3.661279155165E-01  2.614373382777E-01
H64 -6.258654348720E-02 -3.661279155165E-01 -2.614373382777E-01
H65  2.660563725614E-01  2.207909561162E-01  2.390482907569E-01
H66 -2.660563725614E-01 -2.207909561162E-01 -2.390482907569E-01
H67 -4.397651747043E-01  2.818823263810E-01  2.915110266453E-01
H68  4.397651747043E-01 -2.818823263810E-01 -2.915110266453E-01
H69 -4.126948320778E-01  4.831116863539E-01  3.445731890964E-01
H70  4.126948320778E-01 -4.831116863539E-01 -3.445731890964E-01
H71 -4.177594618988E-01  4.803120637839E-01  2.370834070855E-01
H72  4.177594618988E-01 -4.803120637839E-01 -2.370834070855E-01
H73  4.950047280477E-01 -1.929827634994E-01  3.798734612544E-01
H74 -4.950047280477E-01  1.929827634994E-01 -3.798734612544E-01
H75  3.996778027636E-01 -2.271881388767E-01 -4.691343982225E-01
H76 -3.996778027636E-01  2.271881388767E-01  4.691343982225E-01
H77  3.622477621614E-01 -4.249935088433E-01  4.765420479715E-01
H78 -3.622477621614E-01  4.249935088433E-01 -4.765420479715E-01
H79  1.699681080655E-01 -2.765910980499E-01 -4.833971885325E-01
H80 -1.699681080655E-01  2.765910980499E-01  4.833971885325E-01
H81  1.290937482502E-01  2.265982293685E-02  4.467357872152E-01
H82 -1.290937482502E-01 -2.265982293685E-02 -4.467357872152E-01
H83  3.016214248838E-01  7.951317742429E-02  3.633262951428E-01
H84 -3.016214248838E-01 -7.951317742429E-02 -3.633262951428E-01
H85  3.561137072615E-01  7.376030791053E-02  4.648531964471E-01
H86 -3.561137072615E-01 -7.376030791053E-02 -4.648531964471E-01
H87 -6.467639722657E-02 -3.463883772897E-01  2.792827508210E-01
H88  6.467639722657E-02  3.463883772897E-01 -2.792827508210E-01
H89 -8.036156128459E-02 -4.899192149860E-01  4.128184392905E-01
H90  8.036156128459E-02  4.899192149860E-01 -4.128184392905E-01
H91 -2.799817199454E-01 -3.422824694853E-01  4.178267395595E-01
H92  2.799817199454E-01  3.422824694853E-01 -4.178267395595E-01
H93 -9.033131538154E-02 -2.827937512051E-01  4.662596129360E-01
H94  9.033131538154E-02  2.827937512051E-01 -4.662596129360E-01
H95 -2.189466390400E-02 -1.057116833277E-02  2.749150119241E-01
H96  2.189466390400E-02  1.057116833277E-02 -2.749150119241E-01
H97 -1.115826845390E-01  1.428250953270E-03  3.816825594367E-01
H98  1.115826845390E-01 -1.428250953270E-03 -3.816825594367E-01
H99 -2.527976541756E-01 -7.543549486893E-02  3.111577814931E-01
H100  2.527976541756E-01  7.543549486893E-02 -3.111577814931E-01


#===END

data_OPT_STEP_34

_symmetry_space_group_name_H-M 'P 1'
_cell_length_a      7.20036986
_cell_length_b      7.55749326
_cell_length_c     16.37760897
_cell_angle_alpha   92.045015
_cell_angle_beta   80.474112
_cell_angle_gamma   87.218216

loop_
_atom_site_label
_atom_site_fract_x
_atom_site_fract_y
_atom_site_fract_z
SI1  2.338422125525E-01 -2.984101698835E-01  3.213076630707E-01
SI2 -2.338422125525E-01  2.984101698835E-01 -3.213076630707E-01
C3  4.456533175196E-01 -6.288142458046E-02  8.030083420626E-02
C4 -4.456533175196E-01  6.288142458046E-02 -8.030083420626E-02
C5  3.171938680883E-01  4.506296833391E-02  4.520451578537E-02
C6 -3.171938680883E-01 -4.506296833391E-02 -4.520451578537E-02
C7  1.348126351834E-01  8.996655796676E-02  8.746288971716E-02
C8 -1.348126351834E-01 -8.996655796676E-02 -8.746288971716E-02
C9  7.408840816628E-03  1.932607981842E-01  5.311891901379E-02
C10 -7.408840816628E-03 -1.932607981842E-01 -5.311891901379E-02
C11 -1.777710824646E-01  2.391977535245E-01  9.647752652019E-02
C12  1.777710824646E-01 -2.391977535245E-01 -9.647752652019E-02
C13 -3.017660449081E-01  3.379202943066E-01  6.065652501892E-02
C14  3.017660449081E-01 -3.379202943066E-01 -6.065652501892E-02
C15 -2.491793805752E-01  3.965732622254E-01 -2.093968662675E-02
C16  2.491793805752E-01 -3.965732622254E-01  2.093968662675E-02
C17 -7.437396745030E-02  3.563342958564E-01 -6.427836126727E-02
C18  7.437396745030E-02 -3.563342958564E-01  6.427836126727E-02
C19  6.070804070652E-02  2.535703346904E-01 -2.922130304734E-02
C20 -6.070804070652E-02 -2.535703346904E-01  2.922130304734E-02
C21  2.399414518052E-01  2.098795236684E-01 -7.172163529059E-02
C22 -2.399414518052E-01 -2.098795236684E-01  7.172163529059E-02
C23  3.714989421243E-01  1.077097535144E-01 -3.677335809256E-02
C24 -3.714989421243E-01 -1.077097535144E-01  3.677335809256E-02
C25  3.881512968054E-01 -1.316373852214E-01  1.587622972092E-01
C26 -3.881512968054E-01  1.316373852214E-01 -1.587622972092E-01
C27  3.330562283384E-01 -1.961709179194E-01  2.246966627011E-01
C28 -3.330562283384E-01  1.961709179194E-01 -2.246966627011E-01
C29  3.061059681739E-01  4.550798357215E-01  3.117013552843E-01
C30 -3.061059681739E-01 -4.550798357215E-01 -3.117013552843E-01
C31  2.174562394479E-01  3.595987233559E-01  2.454067639396E-01
C32 -2.174562394479E-01 -3.595987233559E-01 -2.454067639396E-01
C33 -4.797191669761E-01  4.237288564972E-01  2.952722602845E-01
C34  4.797191669761E-01 -4.237288564972E-01 -2.952722602845E-01
C35  3.437767856738E-01 -1.869102794076E-01  4.062791896092E-01
C36 -3.437767856738E-01  1.869102794076E-01 -4.062791896092E-01
C37  3.187767759185E-01 -2.848817347555E-01  4.866348087563E-01
C38 -3.187767759185E-01  2.848817347555E-01 -4.866348087563E-01
C39  2.801645764348E-01  8.139979562508E-03  4.211251217337E-01
C40 -2.801645764348E-01 -8.139979562508E-03 -4.211251217337E-01
C41 -3.327864479247E-02 -2.673177418352E-01  3.324232386327E-01
C42  3.327864479247E-02  2.673177418352E-01 -3.324232386327E-01
C43 -1.256911397997E-01 -3.496626527168E-01  4.116164079420E-01
C44  1.256911397997E-01  3.496626527168E-01 -4.116164079420E-01
C45 -1.081781379023E-01 -7.696777323523E-02  3.251031003461E-01
C46  1.081781379023E-01  7.696777323523E-02 -3.251031003461E-01
H47  9.261019139794E-02  3.852357562007E-02  1.481933012948E-01
H48 -9.261019139794E-02 -3.852357562007E-02 -1.481933012948E-01
H49 -2.184211258333E-01  1.905478524180E-01  1.581052302518E-01
H50  2.184211258333E-01 -1.905478524180E-01 -1.581052302518E-01
H51 -4.430840281014E-01  3.691830006957E-01  9.411234454887E-02
H52  4.430840281014E-01 -3.691830006957E-01 -9.411234454887E-02
H53 -3.502882683071E-01  4.744677828801E-01 -4.877262051357E-02
H54  3.502882683071E-01 -4.744677828801E-01  4.877262051357E-02
H55 -3.430359836403E-02  4.021783789529E-01 -1.264468370219E-01
H56  3.430359836403E-02 -4.021783789529E-01  1.264468370219E-01
H57  2.814446929740E-01  2.560879169150E-01 -1.336273211895E-01
H58 -2.814446929740E-01 -2.560879169150E-01  1.336273211895E-01
H59  2.516432435982E-01  4.019813156784E-01  3.721437004892E-01
H60 -2.516432435982E-01 -4.019813156784E-01 -3.721437004892E-01
H61  2.560145527019E-01  4.177330726786E-01  1.849461729935E-01
H62 -2.560145527019E-01 -4.177330726786E-01 -1.849461729935E-01
H63  6.321046633684E-02  3.654527604054E-01  2.600512235605E-01
H64 -6.321046633684E-02 -3.654527604054E-01 -2.600512235605E-01
H65  2.664980064439E-01  2.192326533991E-01  2.378079674190E-01
H66 -2.664980064439E-01 -2.192326533991E-01 -2.378079674190E-01
H67 -4.397964566122E-01  2.812897310765E-01  2.904665097819E-01
H68  4.397964566122E-01 -2.812897310765E-01 -2.904665097819E-01
H69 -4.139071660875E-01  4.821865014598E-01  3.446014921761E-01
H70  4.139071660875E-01 -4.821865014598E-01 -3.446014921761E-01
H71 -4.180064655266E-01  4.803578476724E-01  2.369541932599E-01
H72  4.180064655266E-01 -4.803578476724E-01 -2.369541932599E-01
H73  4.945450663391E-01 -1.941240726260E-01  3.793788766899E-01
H74 -4.945450663391E-01  1.941240726260E-01 -3.793788766899E-01
H75  4.013813473170E-01 -2.284948749008E-01 -4.692778414648E-01
H76 -4.013813473170E-01  2.284948749008E-01  4.692778414648E-01
H77  3.616261270436E-01 -4.256757863348E-01  4.763511111293E-01
H78 -3.616261270436E-01  4.256757863348E-01 -4.763511111293E-01
H79  1.713826137567E-01 -2.754665112056E-01 -4.827521104474E-01
H80 -1.713826137567E-01  2.754665112056E-01  4.827521104474E-01
H81  1.302513870607E-01  2.367800508755E-02  4.480433057854E-01
H82 -1.302513870607E-01 -2.367800508755E-02 -4.480433057854E-01
H83  3.006297731851E-01  7.946642739498E-02  3.636733013572E-01
H84 -3.006297731851E-01 -7.946642739498E-02 -3.636733013572E-01
H85  3.579870190611E-01  7.336562791981E-02  4.647794604217E-01
H86 -3.579870190611E-01 -7.336562791981E-02 -4.647794604217E-01
H87 -6.570458348509E-02 -3.461959364893E-01  2.793005768288E-01
H88  6.570458348509E-02  3.461959364893E-01 -2.793005768288E-01
H89 -8.110992311467E-02 -4.897668332308E-01  4.127328602901E-01
H90  8.110992311467E-02  4.897668332308E-01 -4.127328602901E-01
H91 -2.799793831474E-01 -3.404793734575E-01  4.187118809971E-01
H92  2.799793831474E-01  3.404793734575E-01 -4.187118809971E-01
H93 -8.922913309771E-02 -2.822409612209E-01  4.666203424332E-01
H94  8.922913309771E-02  2.822409612209E-01 -4.666203424332E-01
H95 -2.204715543740E-02 -1.046016575990E-02  2.752868497760E-01
H96  2.204715543740E-02  1.046016575990E-02 -2.752868497760E-01
H97 -1.103788839849E-01  2.353377766080E-03  3.823984095482E-01
H98  1.103788839849E-01 -2.353377766080E-03 -3.823984095482E-01
H99 -2.528224462377E-01 -7.402345498208E-02  3.121672557287E-01
H100  2.528224462377E-01  7.402345498208E-02 -3.121672557287E-01


#===END

data_OPT_STEP_35

_symmetry_space_group_name_H-M 'P 1'
_cell_length_a      7.19876926
_cell_length_b      7.55601062
_cell_length_c     16.37707305
_cell_angle_alpha   92.066303
_cell_angle_beta   80.531034
_cell_angle_gamma   87.214937

loop_
_atom_site_label
_atom_site_fract_x
_atom_site_fract_y
_atom_site_fract_z
SI1  2.337778266010E-01 -2.983185629514E-01  3.212192551740E-01
SI2 -2.337778266010E-01  2.983185629514E-01 -3.212192551740E-01
C3  4.458530657387E-01 -6.243299400862E-02  8.040530022382E-02
C4 -4.458530657387E-01  6.243299400862E-02 -8.040530022382E-02
C5  3.171772061119E-01  4.501561899847E-02  4.514076370291E-02
C6 -3.171772061119E-01 -4.501561899847E-02 -4.514076370291E-02
C7  1.349100865287E-01  9.024854495395E-02  8.744688338983E-02
C8 -1.349100865287E-01 -9.024854495395E-02 -8.744688338983E-02
C9  7.470461371978E-03  1.937300675670E-01  5.315080229805E-02
C10 -7.470461371978E-03 -1.937300675670E-01 -5.315080229805E-02
C11 -1.776342121167E-01  2.398275526786E-01  9.650602173005E-02
C12  1.776342121167E-01 -2.398275526786E-01 -9.650602173005E-02
C13 -3.017574097018E-01  3.383613860133E-01  6.060963351961E-02
C14  3.017574097018E-01 -3.383613860133E-01 -6.060963351961E-02
C15 -2.494018826763E-01  3.966848355025E-01 -2.103369986953E-02
C16  2.494018826763E-01 -3.966848355025E-01  2.103369986953E-02
C17 -7.471350639459E-02  3.560520306335E-01 -6.444397573526E-02
C18  7.471350639459E-02 -3.560520306335E-01  6.444397573526E-02
C19  6.051480329645E-02  2.534718679883E-01 -2.932286198768E-02
C20 -6.051480329645E-02 -2.534718679883E-01  2.932286198768E-02
C21  2.397638142949E-01  2.098511042797E-01 -7.175547048747E-02
C22 -2.397638142949E-01 -2.098511042797E-01  7.175547048747E-02
C23  3.714124144811E-01  1.077112385316E-01 -3.678531194035E-02
C24 -3.714124144811E-01 -1.077112385316E-01  3.678531194035E-02
C25  3.884157396850E-01 -1.311371747794E-01  1.588509879117E-01
C26 -3.884157396850E-01  1.311371747794E-01 -1.588509879117E-01
C27  3.333051290562E-01 -1.958263156589E-01  2.247354380012E-01
C28 -3.333051290562E-01  1.958263156589E-01 -2.247354380012E-01
C29  3.059989825270E-01  4.550340848279E-01  3.116050797913E-01
C30 -3.059989825270E-01 -4.550340848279E-01 -3.116050797913E-01
C31  2.167612471047E-01  3.591213911275E-01  2.454975422398E-01
C32 -2.167612471047E-01 -3.591213911275E-01 -2.454975422398E-01
C33 -4.798038066323E-01  4.237545337591E-01  2.949974061926E-01
C34  4.798038066323E-01 -4.237545337591E-01 -2.949974061926E-01
C35  3.434625749798E-01 -1.870660641518E-01  4.064349046839E-01
C36 -3.434625749798E-01  1.870660641518E-01 -4.064349046839E-01
C37  3.182300408786E-01 -2.851246997292E-01  4.867517172139E-01
C38 -3.182300408786E-01  2.851246997292E-01 -4.867517172139E-01
C39  2.800956171552E-01  7.997254388714E-03  4.212615396134E-01
C40 -2.800956171552E-01 -7.997254388714E-03 -4.212615396134E-01
C41 -3.334435324825E-02 -2.673035586475E-01  3.321275770686E-01
C42  3.334435324825E-02  2.673035586475E-01 -3.321275770686E-01
C43 -1.256923502682E-01 -3.495368165576E-01  4.113359436086E-01
C44  1.256923502682E-01  3.495368165576E-01 -4.113359436086E-01
C45 -1.083845816880E-01 -7.708248741186E-02  3.246654739232E-01
C46  1.083845816880E-01  7.708248741186E-02 -3.246654739232E-01
H47  9.286356308249E-02  3.913475348918E-02  1.482464903950E-01
H48 -9.286356308249E-02 -3.913475348918E-02 -1.482464903950E-01
H49 -2.181611341706E-01  1.911698961264E-01  1.580724992288E-01
H50  2.181611341706E-01 -1.911698961264E-01 -1.580724992288E-01
H51 -4.430519220629E-01  3.695528319527E-01  9.395310966717E-02
H52  4.430519220629E-01 -3.695528319527E-01 -9.395310966717E-02
H53 -3.506935931402E-01  4.745554711879E-01 -4.878529880968E-02
H54  3.506935931402E-01 -4.745554711879E-01  4.878529880968E-02
H55 -3.473097079248E-02  4.018786515183E-01 -1.265296632494E-01
H56  3.473097079248E-02 -4.018786515183E-01  1.265296632494E-01
H57  2.809729567811E-01  2.552068007707E-01 -1.338982166040E-01
H58 -2.809729567811E-01 -2.552068007707E-01  1.338982166040E-01
H59  2.519811005567E-01  4.020393547801E-01  3.721283969956E-01
H60 -2.519811005567E-01 -4.020393547801E-01 -3.721283969956E-01
H61  2.542736979581E-01  4.173947823639E-01  1.850933034182E-01
H62 -2.542736979581E-01 -4.173947823639E-01 -1.850933034182E-01
H63  6.264003959139E-02  3.641575357905E-01  2.603305739546E-01
H64 -6.264003959139E-02 -3.641575357905E-01 -2.603305739546E-01
H65  2.662769913710E-01  2.189918125151E-01  2.377991925498E-01
H66 -2.662769913710E-01 -2.189918125151E-01 -2.377991925498E-01
H67 -4.398860620061E-01  2.812295863740E-01  2.901394658916E-01
H68  4.398860620061E-01 -2.812295863740E-01 -2.901394658916E-01
H69 -4.136194193507E-01  4.822673959098E-01  3.442688017099E-01
H70  4.136194193507E-01 -4.822673959098E-01 -3.442688017099E-01
H71 -4.184734825971E-01  4.805131137974E-01  2.366534922152E-01
H72  4.184734825971E-01 -4.805131137974E-01 -2.366534922152E-01
H73  4.942307022759E-01 -1.943870819062E-01  3.796258508094E-01
H74 -4.942307022759E-01  1.943870819062E-01 -3.796258508094E-01
H75  4.003770649858E-01 -2.282212263675E-01 -4.690023344713E-01
H76 -4.003770649858E-01  2.282212263675E-01  4.690023344713E-01
H77  3.615682635923E-01 -4.260484504512E-01  4.765231215872E-01
H78 -3.615682635923E-01  4.260484504512E-01 -4.765231215872E-01
H79  1.705263136370E-01 -2.760902490084E-01 -4.828389072943E-01
H80 -1.705263136370E-01  2.760902490084E-01  4.828389072943E-01
H81  1.303255434085E-01  2.375480224520E-02  4.480552614412E-01
H82 -1.303255434085E-01 -2.375480224520E-02 -4.480552614412E-01
H83  3.006596814026E-01  7.921148202153E-02  3.638127692420E-01
H84 -3.006596814026E-01 -7.921148202153E-02 -3.638127692420E-01
H85  3.579335627827E-01  7.305598271256E-02  4.649927870266E-01
H86 -3.579335627827E-01 -7.305598271256E-02 -4.649927870266E-01
H87 -6.564621419989E-02 -3.463756656910E-01  2.790070002237E-01
H88  6.564621419989E-02  3.463756656910E-01 -2.790070002237E-01
H89 -8.134815767756E-02 -4.895860754990E-01  4.124596458995E-01
H90  8.134815767756E-02  4.895860754990E-01 -4.124596458995E-01
H91 -2.798715696471E-01 -3.402913547167E-01  4.184614671528E-01
H92  2.798715696471E-01  3.402913547167E-01 -4.184614671528E-01
H93 -8.901101761185E-02 -2.822970451457E-01  4.662605499177E-01
H94  8.901101761185E-02  2.822970451457E-01 -4.662605499177E-01
H95 -2.162473282481E-02 -1.065503714051E-02  2.750162058393E-01
H96  2.162473282481E-02  1.065503714051E-02 -2.750162058393E-01
H97 -1.115461537752E-01  2.374948916658E-03  3.821359182630E-01
H98  1.115461537752E-01 -2.374948916658E-03 -3.821359182630E-01
H99 -2.528641901551E-01 -7.432472003340E-02  3.112065539336E-01
H100  2.528641901551E-01  7.432472003340E-02 -3.112065539336E-01


#===END

data_OPT_STEP_36

_symmetry_space_group_name_H-M 'P 1'
_cell_length_a      7.19742081
_cell_length_b      7.55474771
_cell_length_c     16.38266504
_cell_angle_alpha   92.022438
_cell_angle_beta   80.607443
_cell_angle_gamma   87.240043

loop_
_atom_site_label
_atom_site_fract_x
_atom_site_fract_y
_atom_site_fract_z
SI1  2.343046490090E-01 -2.982917883470E-01  3.212114571823E-01
SI2 -2.343046490090E-01  2.982917883470E-01 -3.212114571823E-01
C3  4.460895144510E-01 -6.233122196997E-02  8.043141072856E-02
C4 -4.460895144510E-01  6.233122196997E-02 -8.043141072856E-02
C5  3.173338128499E-01  4.513855910050E-02  4.514367966970E-02
C6 -3.173338128499E-01 -4.513855910050E-02 -4.514367966970E-02
C7  1.351728294631E-01  9.032347285059E-02  8.740914281224E-02
C8 -1.351728294631E-01 -9.032347285059E-02 -8.740914281224E-02
C9  7.632503153446E-03  1.938317769524E-01  5.311994095157E-02
C10 -7.632503153446E-03 -1.938317769524E-01 -5.311994095157E-02
C11 -1.773316437225E-01  2.399617173627E-01  9.648121142157E-02
C12  1.773316437225E-01 -2.399617173627E-01 -9.648121142157E-02
C13 -3.015516060922E-01  3.385534849393E-01  6.060319973466E-02
C14  3.015516060922E-01 -3.385534849393E-01 -6.060319973466E-02
C15 -2.494884462633E-01  3.967665170527E-01 -2.106898680903E-02
C16  2.494884462633E-01 -3.967665170527E-01  2.106898680903E-02
C17 -7.497988300058E-02  3.559481667985E-01 -6.453399893770E-02
C18  7.497988300058E-02 -3.559481667985E-01  6.453399893770E-02
C19  6.041581129805E-02  2.535311119558E-01 -2.935719011883E-02
C20 -6.041581129805E-02 -2.535311119558E-01  2.935719011883E-02
C21  2.395435217453E-01  2.098585582514E-01 -7.179488498009E-02
C22 -2.395435217453E-01 -2.098585582514E-01  7.179488498009E-02
C23  3.713020050120E-01  1.077037947443E-01 -3.681308605208E-02
C24 -3.713020050120E-01 -1.077037947443E-01  3.681308605208E-02
C25  3.888346370973E-01 -1.309357236440E-01  1.588976062395E-01
C26 -3.888346370973E-01  1.309357236440E-01 -1.588976062395E-01
C27  3.339294543952E-01 -1.956827338323E-01  2.247931096955E-01
C28 -3.339294543952E-01  1.956827338323E-01 -2.247931096955E-01
C29  3.061675349856E-01  4.549750696589E-01  3.116795642575E-01
C30 -3.061675349856E-01 -4.549750696589E-01 -3.116795642575E-01
C31  2.165926573146E-01  3.590836725025E-01  2.456547466196E-01
C32 -2.165926573146E-01 -3.590836725025E-01 -2.456547466196E-01
C33 -4.796793565941E-01  4.235884179203E-01  2.950923938826E-01
C34  4.796793565941E-01 -4.235884179203E-01 -2.950923938826E-01
C35  3.439227143386E-01 -1.872733542307E-01  4.065339498652E-01
C36 -3.439227143386E-01  1.872733542307E-01 -4.065339498652E-01
C37  3.184442658343E-01 -2.855188729559E-01  4.868230428125E-01
C38 -3.184442658343E-01  2.855188729559E-01 -4.868230428125E-01
C39  2.806151949165E-01  7.860824156533E-03  4.212821164946E-01
C40 -2.806151949165E-01 -7.860824156533E-03 -4.212821164946E-01
C41 -3.273835484740E-02 -2.672591045703E-01  3.319266926243E-01
C42  3.273835484740E-02  2.672591045703E-01 -3.319266926243E-01
C43 -1.251013575303E-01 -3.494021603751E-01  4.111349349515E-01
C44  1.251013575303E-01  3.494021603751E-01 -4.111349349515E-01
C45 -1.076839894826E-01 -7.714568258263E-02  3.242939964211E-01
C46  1.076839894826E-01  7.714568258263E-02 -3.242939964211E-01
H47  9.330907868526E-02  3.921632551360E-02  1.481990839214E-01
H48 -9.330907868526E-02 -3.921632551360E-02 -1.481990839214E-01
H49 -2.176522880833E-01  1.913640504541E-01  1.580612267807E-01
H50  2.176522880833E-01 -1.913640504541E-01 -1.580612267807E-01
H51 -4.427342550668E-01  3.698523832797E-01  9.395840189302E-02
H52  4.427342550668E-01 -3.698523832797E-01 -9.395840189302E-02
H53 -3.509711958585E-01  4.745670676426E-01 -4.878360384654E-02
H54  3.509711958585E-01 -4.745670676426E-01  4.878360384654E-02
H55 -3.515965435346E-02  4.018697792051E-01 -1.265580159664E-01
H56  3.515965435346E-02 -4.018697792051E-01  1.265580159664E-01
H57  2.805431246804E-01  2.550746970161E-01 -1.339716562507E-01
H58 -2.805431246804E-01 -2.550746970161E-01  1.339716562507E-01
H59  2.522707533189E-01  4.019488610789E-01  3.721922429119E-01
H60 -2.522707533189E-01 -4.019488610789E-01 -3.721922429119E-01
H61  2.536511252062E-01  4.175485643181E-01  1.853349022184E-01
H62 -2.536511252062E-01 -4.175485643181E-01 -1.853349022184E-01
H63  6.254751814365E-02  3.637445137787E-01  2.605027923839E-01
H64 -6.254751814365E-02 -3.637445137787E-01 -2.605027923839E-01
H65  2.662499988643E-01  2.191185310979E-01  2.379318978227E-01
H66 -2.662499988643E-01 -2.191185310979E-01 -2.379318978227E-01
H67 -4.399468594914E-01  2.810817379195E-01  2.900074279391E-01
H68  4.399468594914E-01 -2.810817379195E-01 -2.900074279391E-01
H69 -4.133192239081E-01  4.815183930074E-01  3.444397032624E-01
H70  4.133192239081E-01 -4.815183930074E-01 -3.444397032624E-01
H71 -4.184017641562E-01  4.808780890166E-01  2.369162770921E-01
H72  4.184017641562E-01 -4.808780890166E-01 -2.369162770921E-01
H73  4.946890857619E-01 -1.946335564196E-01  3.799074236668E-01
H74 -4.946890857619E-01  1.946335564196E-01 -3.799074236668E-01
H75  4.007869476786E-01 -2.290303109780E-01 -4.689129288267E-01
H76 -4.007869476786E-01  2.290303109780E-01  4.689129288267E-01
H77  3.612703571418E-01 -4.264621248615E-01  4.766786716885E-01
H78 -3.612703571418E-01  4.264621248615E-01 -4.766786716885E-01
H79  1.709018606829E-01 -2.760895628138E-01 -4.828802443348E-01
H80 -1.709018606829E-01  2.760895628138E-01  4.828802443348E-01
H81  1.308674524856E-01  2.357939541066E-02  4.479183973260E-01
H82 -1.308674524856E-01 -2.357939541066E-02 -4.479183973260E-01
H83  3.012797985903E-01  7.911974983962E-02  3.638465298083E-01
H84 -3.012797985903E-01 -7.911974983962E-02 -3.638465298083E-01
H85  3.583752882356E-01  7.288686342067E-02  4.650686369789E-01
H86 -3.583752882356E-01 -7.288686342067E-02 -4.650686369789E-01
H87 -6.506328440954E-02 -3.464042340084E-01  2.788624047895E-01
H88  6.506328440954E-02  3.464042340084E-01 -2.788624047895E-01
H89 -8.065628064412E-02 -4.893455955665E-01  4.124740716136E-01
H90  8.065628064412E-02  4.893455955665E-01 -4.124740716136E-01
H91 -2.791753609980E-01 -3.404785507412E-01  4.180552861990E-01
H92  2.791753609980E-01  3.404785507412E-01 -4.180552861990E-01
H93 -8.867508450722E-02 -2.818890497571E-01  4.659890631393E-01
H94  8.867508450722E-02  2.818890497571E-01 -4.659890631393E-01
H95 -2.133407876943E-02 -1.082150746357E-02  2.745377678167E-01
H96  2.133407876943E-02  1.082150746357E-02 -2.745377678167E-01
H97 -1.102616983827E-01  2.373737230263E-03  3.815609032143E-01
H98  1.102616983827E-01 -2.373737230263E-03 -3.815609032143E-01
H99 -2.522093021972E-01 -7.444855983099E-02  3.110093213124E-01
H100  2.522093021972E-01  7.444855983099E-02 -3.110093213124E-01


#===END

data_OPT_STEP_37

_symmetry_space_group_name_H-M 'P 1'
_cell_length_a      7.19239491
_cell_length_b      7.55512819
_cell_length_c     16.38297148
_cell_angle_alpha   92.021382
_cell_angle_beta   80.744500
_cell_angle_gamma   87.321601

loop_
_atom_site_label
_atom_site_fract_x
_atom_site_fract_y
_atom_site_fract_z
SI1  2.352754846595E-01 -2.979524996843E-01  3.212022559538E-01
SI2 -2.352754846595E-01  2.979524996843E-01 -3.212022559538E-01
C3  4.464620495158E-01 -6.217496539433E-02  8.045398211492E-02
C4 -4.464620495158E-01  6.217496539433E-02 -8.045398211492E-02
C5  3.175665321905E-01  4.532479193044E-02  4.516452277775E-02
C6 -3.175665321905E-01 -4.532479193044E-02 -4.516452277775E-02
C7  1.355477503801E-01  9.045760538662E-02  8.736253788209E-02
C8 -1.355477503801E-01 -9.045760538662E-02 -8.736253788209E-02
C9  7.819180090368E-03  1.938568046980E-01  5.306658389136E-02
C10 -7.819180090368E-03 -1.938568046980E-01 -5.306658389136E-02
C11 -1.768580790489E-01  2.403578599219E-01  9.651761913957E-02
C12  1.768580790489E-01 -2.403578599219E-01 -9.651761913957E-02
C13 -3.011007804303E-01  3.394296989523E-01  6.079781795671E-02
C14  3.011007804303E-01 -3.394296989523E-01 -6.079781795671E-02
C15 -2.494956437351E-01  3.972190284251E-01 -2.096291020709E-02
C16  2.494956437351E-01 -3.972190284251E-01  2.096291020709E-02
C17 -7.537604485095E-02  3.556776924747E-01 -6.462232001480E-02
C18  7.537604485095E-02 -3.556776924747E-01  6.462232001480E-02
C19  6.017203844155E-02  2.532760163136E-01 -2.944631287243E-02
C20 -6.017203844155E-02 -2.532760163136E-01  2.944631287243E-02
C21  2.390884861279E-01  2.094103400107E-01 -7.192538274687E-02
C22 -2.390884861279E-01 -2.094103400107E-01  7.192538274687E-02
C23  3.711488072147E-01  1.077182633876E-01 -3.680661688539E-02
C24 -3.711488072147E-01 -1.077182633876E-01  3.680661688539E-02
C25  3.896129405653E-01 -1.304559945223E-01  1.589932823712E-01
C26 -3.896129405653E-01  1.304559945223E-01 -1.589932823712E-01
C27  3.352212887639E-01 -1.951522532512E-01  2.249456645443E-01
C28 -3.352212887639E-01  1.951522532512E-01 -2.249456645443E-01
C29  3.067036987447E-01  4.553072746892E-01  3.117270864947E-01
C30 -3.067036987447E-01 -4.553072746892E-01 -3.117270864947E-01
C31  2.169641956114E-01  3.593483112089E-01  2.456618401455E-01
C32 -2.169641956114E-01 -3.593483112089E-01 -2.456618401455E-01
C33 -4.791638618386E-01  4.236963491458E-01  2.953622463078E-01
C34  4.791638618386E-01 -4.236963491458E-01 -2.953622463078E-01
C35  3.442210320587E-01 -1.870266622170E-01  4.069427601178E-01
C36 -3.442210320587E-01  1.870266622170E-01 -4.069427601178E-01
C37  3.181884205778E-01 -2.856167093923E-01  4.871438407405E-01
C38 -3.181884205778E-01  2.856167093923E-01 -4.871438407405E-01
C39  2.803750920931E-01  7.961349993785E-03  4.216878523361E-01
C40 -2.803750920931E-01 -7.961349993785E-03 -4.216878523361E-01
C41 -3.179624142231E-02 -2.675540367983E-01  3.313293847242E-01
C42  3.179624142231E-02  2.675540367983E-01 -3.313293847242E-01
C43 -1.243502873300E-01 -3.492639657591E-01  4.105598876976E-01
C44  1.243502873300E-01  3.492639657591E-01 -4.105598876976E-01
C45 -1.073633610115E-01 -7.794477228707E-02  3.231119513939E-01
C46  1.073633610115E-01  7.794477228707E-02 -3.231119513939E-01
H47  9.409906969190E-02  3.993044463775E-02  1.483154294450E-01
H48 -9.409906969190E-02 -3.993044463775E-02 -1.483154294450E-01
H49 -2.169317576000E-01  1.917480269623E-01  1.580360670956E-01
H50  2.169317576000E-01 -1.917480269623E-01 -1.580360670956E-01
H51 -4.420806676660E-01  3.707447685839E-01  9.403924573296E-02
H52  4.420806676660E-01 -3.707447685839E-01 -9.403924573296E-02
H53 -3.512266801989E-01  4.749607672827E-01 -4.862076634957E-02
H54  3.512266801989E-01 -4.749607672827E-01  4.862076634957E-02
H55 -3.586611894740E-02  4.012876656920E-01 -1.266899433412E-01
H56  3.586611894740E-02 -4.012876656920E-01  1.266899433412E-01
H57  2.797720052778E-01  2.544232041165E-01 -1.341310497286E-01
H58 -2.797720052778E-01 -2.544232041165E-01  1.341310497286E-01
H59  2.527115770483E-01  4.023363943227E-01  3.721761365364E-01
H60 -2.527115770483E-01 -4.023363943227E-01 -3.721761365364E-01
H61  2.545988671977E-01  4.172359555069E-01  1.852783282162E-01
H62 -2.545988671977E-01 -4.172359555069E-01 -1.852783282162E-01
H63  6.284935303939E-02  3.644492639087E-01  2.602417808775E-01
H64 -6.284935303939E-02 -3.644492639087E-01 -2.602417808775E-01
H65  2.661038824689E-01  2.192696273286E-01  2.382833747462E-01
H66 -2.661038824689E-01 -2.192696273286E-01 -2.382833747462E-01
H67 -4.397977697865E-01  2.812544522953E-01  2.898872797213E-01
H68  4.397977697865E-01 -2.812544522953E-01 -2.898872797213E-01
H69 -4.127484157197E-01  4.807216929059E-01  3.449662742127E-01
H70  4.127484157197E-01 -4.807216929059E-01 -3.449662742127E-01
H71 -4.176421243738E-01  4.817144977836E-01  2.374974305829E-01
H72  4.176421243738E-01 -4.817144977836E-01 -2.374974305829E-01
H73  4.951103481405E-01 -1.939131738101E-01  3.807939058062E-01
H74 -4.951103481405E-01  1.939131738101E-01 -3.807939058062E-01
H75  4.002913240607E-01 -2.294287265609E-01 -4.683303922636E-01
H76 -4.002913240607E-01  2.294287265609E-01  4.683303922636E-01
H77  3.608615029484E-01 -4.264178366094E-01  4.769949523815E-01
H78 -3.608615029484E-01  4.264178366094E-01 -4.769949523815E-01
H79  1.706723131697E-01 -2.762401946115E-01 -4.829304297517E-01
H80 -1.706723131697E-01  2.762401946115E-01  4.829304297517E-01
H81  1.304454043401E-01  2.304524082977E-02  4.479079188313E-01
H82 -1.304454043401E-01 -2.304524082977E-02 -4.479079188313E-01
H83  3.013113393539E-01  7.945198492110E-02  3.643143194543E-01
H84 -3.013113393539E-01 -7.945198492110E-02 -3.643143194543E-01
H85  3.575495516362E-01  7.305842278984E-02  4.657652797910E-01
H86 -3.575495516362E-01 -7.305842278984E-02 -4.657652797910E-01
H87 -6.352721010050E-02 -3.475170873933E-01  2.783297098257E-01
H88  6.352721010050E-02  3.475170873933E-01 -2.783297098257E-01
H89 -7.880072149899E-02 -4.888400287175E-01  4.125336223120E-01
H90  7.880072149899E-02  4.888400287175E-01 -4.125336223120E-01
H91 -2.783446365486E-01 -3.418642619188E-01  4.168349604111E-01
H92  2.783446365486E-01  3.418642619188E-01 -4.168349604111E-01
H93 -8.932311358711E-02 -2.802167762679E-01  4.653878300919E-01
H94  8.932311358711E-02  2.802167762679E-01 -4.653878300919E-01
H95 -2.034855999129E-02 -1.155828714545E-02  2.736047435056E-01
H96  2.034855999129E-02  1.155828714545E-02 -2.736047435056E-01
H97 -1.115836341146E-01  2.125019934000E-03  3.804439267175E-01
H98  1.115836341146E-01 -2.125019934000E-03 -3.804439267175E-01
H99 -2.514947351137E-01 -7.630247069983E-02  3.089865013935E-01
H100  2.514947351137E-01  7.630247069983E-02 -3.089865013935E-01


#===END

data_OPT_STEP_38

_symmetry_space_group_name_H-M 'P 1'
_cell_length_a      7.18637120
_cell_length_b      7.55742367
_cell_length_c     16.40305958
_cell_angle_alpha   91.757291
_cell_angle_beta   80.955586
_cell_angle_gamma   87.412503

loop_
_atom_site_label
_atom_site_fract_x
_atom_site_fract_y
_atom_site_fract_z
SI1  2.377716168991E-01 -2.975561992309E-01  3.213700453525E-01
SI2 -2.377716168991E-01  2.975561992309E-01 -3.213700453525E-01
C3  4.473126005928E-01 -6.242388535444E-02  8.040684625763E-02
C4 -4.473126005928E-01  6.242388535444E-02 -8.040684625763E-02
C5  3.179067488757E-01  4.465925832237E-02  4.494315374167E-02
C6 -3.179067488757E-01 -4.465925832237E-02 -4.494315374167E-02
C7  1.363948482332E-01  9.013440362776E-02  8.727036687693E-02
C8 -1.363948482332E-01 -9.013440362776E-02 -8.727036687693E-02
C9  8.305100685742E-03  1.938007235081E-01  5.307739304425E-02
C10 -8.305100685742E-03 -1.938007235081E-01 -5.307739304425E-02
C11 -1.758468425763E-01  2.403888248681E-01  9.662424241066E-02
C12  1.758468425763E-01 -2.403888248681E-01 -9.662424241066E-02
C13 -3.004346686329E-01  3.393590608499E-01  6.082179928543E-02
C14  3.004346686329E-01 -3.393590608499E-01 -6.082179928543E-02
C15 -2.497069363542E-01  3.975180732351E-01 -2.087535821763E-02
C16  2.497069363542E-01 -3.975180732351E-01  2.087535821763E-02
C17 -7.615407361545E-02  3.559761556382E-01 -6.456416279723E-02
C18  7.615407361545E-02 -3.559761556382E-01  6.456416279723E-02
C19  5.970583062963E-02  2.531878103384E-01 -2.948956019490E-02
C20 -5.970583062963E-02 -2.531878103384E-01  2.948956019490E-02
C21  2.382539036920E-01  2.095674026985E-01 -7.192509055292E-02
C22 -2.382539036920E-01 -2.095674026985E-01  7.192509055292E-02
C23  3.706258737283E-01  1.074424698879E-01 -3.693163746047E-02
C24 -3.706258737283E-01 -1.074424698879E-01  3.693163746047E-02
C25  3.913624467060E-01 -1.301430620351E-01  1.591232264924E-01
C26 -3.913624467060E-01  1.301430620351E-01 -1.591232264924E-01
C27  3.381400253662E-01 -1.946386282436E-01  2.252585274528E-01
C28 -3.381400253662E-01  1.946386282436E-01 -2.252585274528E-01
C29  3.080545981282E-01  4.557420861902E-01  3.122093048637E-01
C30 -3.080545981282E-01 -4.557420861902E-01 -3.122093048637E-01
C31  2.170392350906E-01  3.605023403535E-01  2.464989311710E-01
C32 -2.170392350906E-01 -3.605023403535E-01 -2.464989311710E-01
C33 -4.778898195149E-01  4.235487573895E-01  2.957390386267E-01
C34  4.778898195149E-01 -4.235487573895E-01 -2.957390386267E-01
C35  3.456202579924E-01 -1.870425869666E-01  4.074801976131E-01
C36 -3.456202579924E-01  1.870425869666E-01 -4.074801976131E-01
C37  3.174539535562E-01 -2.858847154336E-01  4.876450908472E-01
C38 -3.174539535562E-01  2.858847154336E-01 -4.876450908472E-01
C39  2.815188883908E-01  7.715617853685E-03  4.216111333078E-01
C40 -2.815188883908E-01 -7.715617853685E-03 -4.216111333078E-01
C41 -2.924003819977E-02 -2.677370428472E-01  3.305825493924E-01
C42  2.924003819977E-02  2.677370428472E-01 -3.305825493924E-01
C43 -1.224463613274E-01 -3.488855873907E-01  4.098332958634E-01
C44  1.224463613274E-01  3.488855873907E-01 -4.098332958634E-01
C45 -1.055445019849E-01 -7.886840360983E-02  3.212652536256E-01
C46  1.055445019849E-01  7.886840360983E-02 -3.212652536256E-01
H47  9.553816998170E-02  3.938233736245E-02  1.481753243519E-01
H48 -9.553816998170E-02 -3.938233736245E-02 -1.481753243519E-01
H49 -2.152288242802E-01  1.917208936015E-01  1.581747487165E-01
H50  2.152288242802E-01 -1.917208936015E-01 -1.581747487165E-01
H51 -4.409440417328E-01  3.711329752820E-01  9.412207529221E-02
H52  4.409440417328E-01 -3.711329752820E-01 -9.412207529221E-02
H53 -3.518864557964E-01  4.755855747116E-01 -4.833400941061E-02
H54  3.518864557964E-01 -4.755855747116E-01  4.833400941061E-02
H55 -3.726070654533E-02  4.018241321740E-01 -1.265833100062E-01
H56  3.726070654533E-02 -4.018241321740E-01  1.265833100062E-01
H57  2.783479050857E-01  2.549806224603E-01 -1.340362388337E-01
H58 -2.783479050857E-01 -2.549806224603E-01  1.340362388337E-01
H59  2.544441001597E-01  4.025530169893E-01  3.725994171593E-01
H60 -2.544441001597E-01 -4.025530169893E-01 -3.725994171593E-01
H61  2.539509543972E-01  4.187068582352E-01  1.862573184167E-01
H62 -2.539509543972E-01 -4.187068582352E-01 -1.862573184167E-01
H63  6.295535833143E-02  3.654028502232E-01  2.611781871977E-01
H64 -6.295535833143E-02 -3.654028502232E-01 -2.611781871977E-01
H65  2.659621138775E-01  2.208153161712E-01  2.392299258915E-01
H66 -2.659621138775E-01 -2.208153161712E-01 -2.392299258915E-01
H67 -4.393768010929E-01  2.810756442382E-01  2.901370069691E-01
H68  4.393768010929E-01 -2.810756442382E-01 -2.901370069691E-01
H69 -4.105737884321E-01  4.794644490080E-01  3.452837177053E-01
H70  4.105737884321E-01 -4.794644490080E-01 -3.452837177053E-01
H71 -4.165436998864E-01  4.822593094290E-01  2.380256109349E-01
H72  4.165436998864E-01 -4.822593094290E-01 -2.380256109349E-01
H73  4.968283074085E-01 -1.935619914711E-01  3.824364841692E-01
H74 -4.968283074085E-01  1.935619914711E-01 -3.824364841692E-01
H75  3.980466928572E-01 -2.293045392791E-01 -4.672447795197E-01
H76 -3.980466928572E-01  2.293045392791E-01  4.672447795197E-01
H77  3.606345733567E-01 -4.265494778683E-01  4.778854652384E-01
H78 -3.606345733567E-01  4.265494778683E-01 -4.778854652384E-01
H79  1.691926727121E-01 -2.773516340400E-01 -4.835340538626E-01
H80 -1.691926727121E-01  2.773516340400E-01  4.835340538626E-01
H81  1.309353550300E-01  2.204588862292E-02  4.465547961411E-01
H82 -1.309353550300E-01 -2.204588862292E-02 -4.465547961411E-01
H83  3.043471061052E-01  7.934810358995E-02  3.642621065761E-01
H84 -3.043471061052E-01 -7.934810358995E-02 -3.642621065761E-01
H85  3.570374925358E-01  7.297928546687E-02  4.663810053939E-01
H86 -3.570374925358E-01 -7.297928546687E-02 -4.663810053939E-01
H87 -6.019081482465E-02 -3.485918358931E-01  2.778400775077E-01
H88  6.019081482465E-02  3.485918358931E-01 -2.778400775077E-01
H89 -7.484490134902E-02 -4.876620210114E-01  4.132089872222E-01
H90  7.484490134902E-02  4.876620210114E-01 -4.132089872222E-01
H91 -2.762962703217E-01 -3.442627942506E-01  4.146522833734E-01
H92  2.762962703217E-01  3.442627942506E-01 -4.146522833734E-01
H93 -9.041957351359E-02 -2.771582318173E-01  4.645465950493E-01
H94  9.041957351359E-02  2.771582318173E-01 -4.645465950493E-01
H95 -1.880371027569E-02 -1.236176486567E-02  2.717641766520E-01
H96  1.880371027569E-02  1.236176486567E-02 -2.717641766520E-01
H97 -1.104154667217E-01  1.827682944419E-03  3.781223113411E-01
H98  1.104154667217E-01 -1.827682944419E-03 -3.781223113411E-01
H99 -2.493545851922E-01 -7.860435054334E-02  3.067305018812E-01
H100  2.493545851922E-01  7.860435054334E-02 -3.067305018812E-01


#===END

data_OPT_STEP_39

_symmetry_space_group_name_H-M 'P 1'
_cell_length_a      7.18326219
_cell_length_b      7.54886061
_cell_length_c     16.36059196
_cell_angle_alpha   91.959771
_cell_angle_beta   81.274980
_cell_angle_gamma   87.466395

loop_
_atom_site_label
_atom_site_fract_x
_atom_site_fract_y
_atom_site_fract_z
SI1  2.397467948553E-01 -2.975746517434E-01  3.212831754284E-01
SI2 -2.397467948553E-01  2.975746517434E-01 -3.212831754284E-01
C3  4.483874811204E-01 -6.120950501071E-02  8.079244536256E-02
C4 -4.483874811204E-01  6.120950501071E-02 -8.079244536256E-02
C5  3.184707766459E-01  4.519886880925E-02  4.505309216882E-02
C6 -3.184707766459E-01 -4.519886880925E-02 -4.505309216882E-02
C7  1.374351815981E-01  9.104836992810E-02  8.742642218025E-02
C8 -1.374351815981E-01 -9.104836992810E-02 -8.742642218025E-02
C9  8.861774352923E-03  1.941680683381E-01  5.305936792311E-02
C10 -8.861774352923E-03 -1.941680683381E-01 -5.305936792311E-02
C11 -1.746826702598E-01  2.412465266889E-01  9.672907843760E-02
C12  1.746826702598E-01 -2.412465266889E-01 -9.672907843760E-02
C13 -2.995779035776E-01  3.404382236164E-01  6.102011306344E-02
C14  2.995779035776E-01 -3.404382236164E-01 -6.102011306344E-02
C15 -2.499353357809E-01  3.977181894307E-01 -2.090340227414E-02
C16  2.499353357809E-01 -3.977181894307E-01  2.090340227414E-02
C17 -7.706775125158E-02  3.554186123691E-01 -6.480896875009E-02
C18  7.706775125158E-02 -3.554186123691E-01  6.480896875009E-02
C19  5.925761620675E-02  2.528630832288E-01 -2.967733116429E-02
C20 -5.925761620675E-02 -2.528630832288E-01  2.967733116429E-02
C21  2.372556220276E-01  2.086560074175E-01 -7.227692672362E-02
C22 -2.372556220276E-01 -2.086560074175E-01  7.227692672362E-02
C23  3.701526344613E-01  1.070210901492E-01 -3.711886680773E-02
C24 -3.701526344613E-01 -1.070210901492E-01  3.711886680773E-02
C25  3.930211940787E-01 -1.291333504972E-01  1.594488772490E-01
C26 -3.930211940787E-01  1.291333504972E-01 -1.594488772490E-01
C27  3.407222091043E-01 -1.939792163551E-01  2.255137116556E-01
C28 -3.407222091043E-01  1.939792163551E-01 -2.255137116556E-01
C29  3.095270621783E-01  4.552976222901E-01  3.118216399660E-01
C30 -3.095270621783E-01 -4.552976222901E-01 -3.118216399660E-01
C31  2.167342939185E-01  3.591193931902E-01  2.463311112536E-01
C32 -2.167342939185E-01 -3.591193931902E-01 -2.463311112536E-01
C33 -4.766023070957E-01  4.227515721073E-01  2.948841682290E-01
C34  4.766023070957E-01 -4.227515721073E-01 -2.948841682290E-01
C35  3.464831662821E-01 -1.872369733515E-01  4.083985735100E-01
C36 -3.464831662821E-01  1.872369733515E-01 -4.083985735100E-01
C37  3.169205515923E-01 -2.860801079009E-01  4.886020737733E-01
C38 -3.169205515923E-01  2.860801079009E-01 -4.886020737733E-01
C39  2.821468135761E-01  7.727550248375E-03  4.224755718482E-01
C40 -2.821468135761E-01 -7.727550248375E-03 -4.224755718482E-01
C41 -2.712215010892E-02 -2.682057300494E-01  3.297409916141E-01
C42  2.712215010892E-02  2.682057300494E-01 -3.297409916141E-01
C43 -1.203664365441E-01 -3.498749481800E-01  4.086332574132E-01
C44  1.203664365441E-01  3.498749481800E-01 -4.086332574132E-01
C45 -1.044212941447E-01 -7.966227443678E-02  3.207053569349E-01
C46  1.044212941447E-01  7.966227443678E-02 -3.207053569349E-01
H47  9.743463923288E-02  4.134197102776E-02  1.486585740611E-01
H48 -9.743463923288E-02 -4.134197102776E-02 -1.486585740611E-01
H49 -2.133000785679E-01  1.929802547824E-01  1.583454161466E-01
H50  2.133000785679E-01 -1.929802547824E-01 -1.583454161466E-01
H51 -4.396217571005E-01  3.725126231560E-01  9.431139781226E-02
H52  4.396217571005E-01 -3.725126231560E-01 -9.431139781226E-02
H53 -3.525471099667E-01  4.758929918346E-01 -4.820507287571E-02
H54  3.525471099667E-01 -4.758929918346E-01  4.820507287571E-02
H55 -3.904763288550E-02  4.003957604688E-01 -1.270662313926E-01
H56  3.904763288550E-02 -4.003957604688E-01  1.270662313926E-01
H57  2.764441856844E-01  2.529890978754E-01 -1.347240605171E-01
H58 -2.764441856844E-01 -2.529890978754E-01  1.347240605171E-01
H59  2.571959983984E-01  4.024808334333E-01  3.724019897063E-01
H60 -2.571959983984E-01 -4.024808334333E-01 -3.724019897063E-01
H61  2.538842287296E-01  4.153835731382E-01  1.855252714396E-01
H62 -2.538842287296E-01 -4.153835731382E-01 -1.855252714396E-01
H63  6.267856373741E-02  3.654812452342E-01  2.610921523179E-01
H64 -6.267856373741E-02 -3.654812452342E-01 -2.610921523179E-01
H65  2.641332252224E-01  2.185776323243E-01  2.397855412584E-01
H66 -2.641332252224E-01 -2.185776323243E-01 -2.397855412584E-01
H67 -4.386076309270E-01  2.798696442316E-01  2.890643540950E-01
H68  4.386076309270E-01 -2.798696442316E-01 -2.890643540950E-01
H69 -4.080495924620E-01  4.787398495655E-01  3.444513896081E-01
H70  4.080495924620E-01 -4.787398495655E-01 -3.444513896081E-01
H71 -4.162183966098E-01  4.814837169078E-01  2.370372689292E-01
H72  4.162183966098E-01 -4.814837169078E-01 -2.370372689292E-01
H73  4.978713950759E-01 -1.936555549698E-01  3.841221909851E-01
H74 -4.978713950759E-01  1.936555549698E-01 -3.841221909851E-01
H75  3.967400224146E-01 -2.295043140617E-01 -4.656374079493E-01
H76 -3.967400224146E-01  2.295043140617E-01  4.656374079493E-01
H77  3.599592043905E-01 -4.268734949719E-01  4.789084983658E-01
H78 -3.599592043905E-01  4.268734949719E-01 -4.789084983658E-01
H79  1.684662580526E-01 -2.773745750491E-01 -4.832584902624E-01
H80 -1.684662580526E-01  2.773745750491E-01  4.832584902624E-01
H81  1.316822791027E-01  2.201908914301E-02  4.470543045289E-01
H82 -1.316822791027E-01 -2.201908914301E-02 -4.470543045289E-01
H83  3.048970418141E-01  7.935296418786E-02  3.650597502823E-01
H84 -3.048970418141E-01 -7.935296418786E-02 -3.650597502823E-01
H85  3.574525132590E-01  7.296630957215E-02  4.674774686682E-01
H86 -3.574525132590E-01 -7.296630957215E-02 -4.674774686682E-01
H87 -5.747333610730E-02 -3.491692510746E-01  2.766656235628E-01
H88  5.747333610730E-02  3.491692510746E-01 -2.766656235628E-01
H89 -7.163629290949E-02 -4.882586273524E-01  4.121355812040E-01
H90  7.163629290949E-02  4.882586273524E-01 -4.121355812040E-01
H91 -2.740166886991E-01 -3.467109347862E-01  4.125549540812E-01
H92  2.740166886991E-01  3.467109347862E-01 -4.125549540812E-01
H93 -8.997238967898E-02 -2.773662593533E-01  4.637096161479E-01
H94  8.997238967898E-02  2.773662593533E-01 -4.637096161479E-01
H95 -1.910710667239E-02 -1.248189117831E-02  2.712281926981E-01
H96  1.910710667239E-02  1.248189117831E-02 -2.712281926981E-01
H97 -1.086827097026E-01  1.139729421049E-03  3.775189860745E-01
H98  1.086827097026E-01 -1.139729421049E-03 -3.775189860745E-01
H99 -2.482151361033E-01 -8.049904275252E-02  3.064200537627E-01
H100  2.482151361033E-01  8.049904275252E-02 -3.064200537627E-01


#===END

data_OPT_STEP_40

_symmetry_space_group_name_H-M 'P 1'
_cell_length_a      7.18334008
_cell_length_b      7.54483850
_cell_length_c     16.35270500
_cell_angle_alpha   91.948428
_cell_angle_beta   81.342384
_cell_angle_gamma   87.424268

loop_
_atom_site_label
_atom_site_fract_x
_atom_site_fract_y
_atom_site_fract_z
SI1  2.399818666483E-01 -2.977010497364E-01  3.212817853618E-01
SI2 -2.399818666483E-01  2.977010497364E-01 -3.212817853618E-01
C3  4.486282744192E-01 -6.128605241678E-02  8.080077999468E-02
C4 -4.486282744192E-01  6.128605241678E-02 -8.080077999468E-02
C5  3.186363953647E-01  4.538488021365E-02  4.510935908659E-02
C6 -3.186363953647E-01 -4.538488021365E-02 -4.510935908659E-02
C7  1.376811167579E-01  9.110599508512E-02  8.744833584509E-02
C8 -1.376811167579E-01 -9.110599508512E-02 -8.744833584509E-02
C9  8.917336702549E-03  1.941982818353E-01  5.303639792079E-02
C10 -8.917336702549E-03 -1.941982818353E-01 -5.303639792079E-02
C11 -1.745543890141E-01  2.411421248735E-01  9.667044534963E-02
C12  1.745543890141E-01 -2.411421248735E-01 -9.667044534963E-02
C13 -2.996441028549E-01  3.403934676846E-01  6.096851336125E-02
C14  2.996441028549E-01 -3.403934676846E-01 -6.096851336125E-02
C15 -2.502933446049E-01  3.976733850594E-01 -2.099588246151E-02
C16  2.502933446049E-01 -3.976733850594E-01  2.099588246151E-02
C17 -7.746699249311E-02  3.555746314756E-01 -6.485773263267E-02
C18  7.746699249311E-02 -3.555746314756E-01  6.485773263267E-02
C19  5.908956834738E-02  2.531560750890E-01 -2.965581353659E-02
C20 -5.908956834738E-02 -2.531560750890E-01  2.965581353659E-02
C21  2.369386525522E-01  2.087699981057E-01 -7.230741764680E-02
C22 -2.369386525522E-01 -2.087699981057E-01  7.230741764680E-02
C23  3.699637115095E-01  1.069812739549E-01 -3.716859894847E-02
C24 -3.699637115095E-01 -1.069812739549E-01  3.716859894847E-02
C25  3.934606866509E-01 -1.292511883440E-01  1.594797625472E-01
C26 -3.934606866509E-01  1.292511883440E-01 -1.594797625472E-01
C27  3.411152204959E-01 -1.940471089132E-01  2.255394320742E-01
C28 -3.411152204959E-01  1.940471089132E-01 -2.255394320742E-01
C29  3.099952034197E-01  4.550167729942E-01  3.118750281436E-01
C30 -3.099952034197E-01 -4.550167729942E-01 -3.118750281436E-01
C31  2.170829039349E-01  3.585779212408E-01  2.464009042678E-01
C32 -2.170829039349E-01 -3.585779212408E-01 -2.464009042678E-01
C33 -4.761778746867E-01  4.225384393509E-01  2.949234876287E-01
C34  4.761778746867E-01 -4.225384393509E-01 -2.949234876287E-01
C35  3.464409142467E-01 -1.872035840801E-01  4.085253456422E-01
C36 -3.464409142467E-01  1.872035840801E-01 -4.085253456422E-01
C37  3.172317832208E-01 -2.862540505343E-01  4.887339419621E-01
C38 -3.172317832208E-01  2.862540505343E-01 -4.887339419621E-01
C39  2.815754683329E-01  8.011139808145E-03  4.226834648242E-01
C40 -2.815754683329E-01 -8.011139808145E-03 -4.226834648242E-01
C41 -2.685212023444E-02 -2.683497926429E-01  3.295527037219E-01
C42  2.685212023444E-02  2.683497926429E-01 -3.295527037219E-01
C43 -1.199780042284E-01 -3.499697857488E-01  4.084724602699E-01
C44  1.199780042284E-01  3.499697857488E-01 -4.084724602699E-01
C45 -1.044720171147E-01 -7.971493236330E-02  3.203485946377E-01
C46  1.044720171147E-01  7.971493236330E-02 -3.203485946377E-01
H47  9.782012425814E-02  4.095551603594E-02  1.485411783525E-01
H48 -9.782012425814E-02 -4.095551603594E-02 -1.485411783525E-01
H49 -2.128581247893E-01  1.932666943646E-01  1.584655137425E-01
H50  2.128581247893E-01 -1.932666943646E-01 -1.584655137425E-01
H51 -4.395923321779E-01  3.729602989932E-01  9.446824904012E-02
H52  4.395923321779E-01 -3.729602989932E-01 -9.446824904012E-02
H53 -3.530970164398E-01  4.757017076117E-01 -4.837007624915E-02
H54  3.530970164398E-01 -4.757017076117E-01  4.837007624915E-02
H55 -3.967508242025E-02  4.006406338425E-01 -1.271091958609E-01
H56  3.967508242025E-02 -4.006406338425E-01  1.271091958609E-01
H57  2.760242518756E-01  2.534729547729E-01 -1.346652644637E-01
H58 -2.760242518756E-01 -2.534729547729E-01  1.346652644637E-01
H59  2.579457779509E-01  4.022419342398E-01  3.725192376880E-01
H60 -2.579457779509E-01 -4.022419342398E-01 -3.725192376880E-01
H61  2.537035986802E-01  4.149460974465E-01  1.855841818667E-01
H62 -2.537035986802E-01 -4.149460974465E-01 -1.855841818667E-01
H63  6.312239308305E-02  3.645825201748E-01  2.612060292926E-01
H64 -6.312239308305E-02 -3.645825201748E-01 -2.612060292926E-01
H65  2.647931957204E-01  2.180646446254E-01  2.398139523347E-01
H66 -2.647931957204E-01 -2.180646446254E-01 -2.398139523347E-01
H67 -4.380565314329E-01  2.796358061307E-01  2.889621340700E-01
H68  4.380565314329E-01 -2.796358061307E-01 -2.889621340700E-01
H69 -4.075647743296E-01  4.782632643650E-01  3.445527932879E-01
H70  4.075647743296E-01 -4.782632643650E-01 -3.445527932879E-01
H71 -4.160093551485E-01  4.815714252194E-01  2.371315064389E-01
H72  4.160093551485E-01 -4.815714252194E-01 -2.371315064389E-01
H73  4.979463884066E-01 -1.933439736595E-01  3.842339018905E-01
H74 -4.979463884066E-01  1.933439736595E-01 -3.842339018905E-01
H75  3.974606494130E-01 -2.300596385542E-01 -4.655935091782E-01
H76 -3.974606494130E-01  2.300596385542E-01  4.655935091782E-01
H77  3.599019937988E-01 -4.271564081867E-01  4.790551828819E-01
H78 -3.599019937988E-01  4.271564081867E-01 -4.790551828819E-01
H79  1.690592195906E-01 -2.771251999940E-01 -4.830042260101E-01
H80 -1.690592195906E-01  2.771251999940E-01  4.830042260101E-01
H81  1.309162259092E-01  2.212262620186E-02  4.471059522148E-01
H82 -1.309162259092E-01 -2.212262620186E-02 -4.471059522148E-01
H83  3.045273364319E-01  7.987624295146E-02  3.652933444534E-01
H84 -3.045273364319E-01 -7.987624295146E-02 -3.652933444534E-01
H85  3.564660240140E-01  7.341210004555E-02  4.678927479335E-01
H86 -3.564660240140E-01 -7.341210004555E-02 -4.678927479335E-01
H87 -5.710130602348E-02 -3.495172433694E-01  2.764699559094E-01
H88  5.710130602348E-02  3.495172433694E-01 -2.764699559094E-01
H89 -7.185723714607E-02 -4.884580657354E-01  4.118919156236E-01
H90  7.185723714607E-02  4.884580657354E-01 -4.118919156236E-01
H91 -2.735561259806E-01 -3.461843031975E-01  4.125520980558E-01
H92  2.735561259806E-01  3.461843031975E-01 -4.125520980558E-01
H93 -8.899648312044E-02 -2.779845178257E-01  4.635068558965E-01
H94  8.899648312044E-02  2.779845178257E-01 -4.635068558965E-01
H95 -1.852341961032E-02 -1.252356577419E-02  2.710410176645E-01
H96  1.852341961032E-02  1.252356577419E-02 -2.710410176645E-01
H97 -1.098902240797E-01  1.344345452908E-03  3.773994274028E-01
H98  1.098902240797E-01 -1.344345452908E-03 -3.773994274028E-01
H99 -2.481217990781E-01 -8.076381104592E-02  3.054879874440E-01
H100  2.481217990781E-01  8.076381104592E-02 -3.054879874440E-01


#===END

data_OPT_STEP_41

_symmetry_space_group_name_H-M 'P 1'
_cell_length_a      7.18526070
_cell_length_b      7.54010970
_cell_length_c     16.34512778
_cell_angle_alpha   91.983030
_cell_angle_beta   81.379885
_cell_angle_gamma   87.390543

loop_
_atom_site_label
_atom_site_fract_x
_atom_site_fract_y
_atom_site_fract_z
SI1  2.401806061204E-01 -2.978327165370E-01  3.212762447982E-01
SI2 -2.401806061204E-01  2.978327165370E-01 -3.212762447982E-01
C3  4.487729336039E-01 -6.137596627602E-02  8.079541526383E-02
C4 -4.487729336039E-01  6.137596627602E-02 -8.079541526383E-02
C5  3.187233870529E-01  4.537179837938E-02  4.510787163555E-02
C6 -3.187233870529E-01 -4.537179837938E-02 -4.510787163555E-02
C7  1.378527988599E-01  9.103798750823E-02  8.743514257351E-02
C8 -1.378527988599E-01 -9.103798750823E-02 -8.743514257351E-02
C9  9.028066315156E-03  1.942713784810E-01  5.305629905386E-02
C10 -9.028066315156E-03 -1.942713784810E-01 -5.305629905386E-02
C11 -1.743222455567E-01  2.412836742536E-01  9.672201252213E-02
C12  1.743222455567E-01 -2.412836742536E-01 -9.672201252213E-02
C13 -2.995380727757E-01  3.404662809345E-01  6.099175144011E-02
C14  2.995380727757E-01 -3.404662809345E-01 -6.099175144011E-02
C15 -2.504025389260E-01  3.977221285750E-01 -2.099239265403E-02
C16  2.504025389260E-01 -3.977221285750E-01  2.099239265403E-02
C17 -7.766700258897E-02  3.556288240905E-01 -6.486300332518E-02
C18  7.766700258897E-02 -3.556288240905E-01  6.486300332518E-02
C19  5.899804651094E-02  2.532181763090E-01 -2.965560253010E-02
C20 -5.899804651094E-02 -2.532181763090E-01  2.965560253010E-02
C21  2.367695018278E-01  2.088594999952E-01 -7.230541022174E-02
C22 -2.367695018278E-01 -2.088594999952E-01  7.230541022174E-02
C23  3.698873301335E-01  1.070671971460E-01 -3.715971523179E-02
C24 -3.698873301335E-01 -1.070671971460E-01  3.715971523179E-02
C25  3.937112944824E-01 -1.293925078268E-01  1.594807861298E-01
C26 -3.937112944824E-01  1.293925078268E-01 -1.594807861298E-01
C27  3.414090067157E-01 -1.941796011321E-01  2.255497680993E-01
C28 -3.414090067157E-01  1.941796011321E-01 -2.255497680993E-01
C29  3.103208588820E-01  4.546817845016E-01  3.118750517073E-01
C30 -3.103208588820E-01 -4.546817845016E-01 -3.118750517073E-01
C31  2.182376234700E-01  3.581833809211E-01  2.460863122446E-01
C32 -2.182376234700E-01 -3.581833809211E-01 -2.460863122446E-01
C33 -4.759408683286E-01  4.220712009124E-01  2.953511658524E-01
C34  4.759408683286E-01 -4.220712009124E-01 -2.953511658524E-01
C35  3.464237379786E-01 -1.872677713350E-01  4.086561532051E-01
C36 -3.464237379786E-01  1.872677713350E-01 -4.086561532051E-01
C37  3.170165328044E-01 -2.862510965355E-01  4.888928591218E-01
C38 -3.170165328044E-01  2.862510965355E-01 -4.888928591218E-01
C39  2.817193312164E-01  8.100011383455E-03  4.227679930333E-01
C40 -2.817193312164E-01 -8.100011383455E-03 -4.227679930333E-01
C41 -2.660684958267E-02 -2.684005182976E-01  3.294322082707E-01
C42  2.660684958267E-02  2.684005182976E-01 -3.294322082707E-01
C43 -1.197128717744E-01 -3.496840684532E-01  4.084460130911E-01
C44  1.197128717744E-01  3.496840684532E-01 -4.084460130911E-01
C45 -1.043047226629E-01 -7.967888152643E-02  3.200329787412E-01
C46  1.043047226629E-01  7.967888152643E-02 -3.200329787412E-01
H47  9.814664682378E-02  4.086539583545E-02  1.485309009866E-01
H48 -9.814664682378E-02 -4.086539583545E-02 -1.485309009866E-01
H49 -2.124535215896E-01  1.933599872728E-01  1.585066881863E-01
H50  2.124535215896E-01 -1.933599872728E-01 -1.585066881863E-01
H51 -4.394039066658E-01  3.730296201634E-01  9.450713428733E-02
H52  4.394039066658E-01 -3.730296201634E-01 -9.450713428733E-02
H53 -3.532985984502E-01  4.757148463019E-01 -4.838472957391E-02
H54  3.532985984502E-01 -4.757148463019E-01  4.838472957391E-02
H55 -4.003783261038E-02  4.007352065972E-01 -1.271087914546E-01
H56  4.003783261038E-02 -4.007352065972E-01  1.271087914546E-01
H57  2.757445842644E-01  2.536662080837E-01 -1.346474506351E-01
H58 -2.757445842644E-01 -2.536662080837E-01  1.346474506351E-01
H59  2.578502822146E-01  4.019019899066E-01  3.724474089168E-01
H60 -2.578502822146E-01 -4.019019899066E-01 -3.724474089168E-01
H61  2.552773157640E-01  4.145581192177E-01  1.853072806778E-01
H62 -2.552773157640E-01 -4.145581192177E-01 -1.853072806778E-01
H63  6.432834045430E-02  3.641978944558E-01  2.605627438649E-01
H64 -6.432834045430E-02 -3.641978944558E-01 -2.605627438649E-01
H65  2.661701026853E-01  2.175703878003E-01  2.395315759296E-01
H66 -2.661701026853E-01 -2.175703878003E-01 -2.395315759296E-01
H67 -4.377226601147E-01  2.791165083639E-01  2.891633413941E-01
H68  4.377226601147E-01 -2.791165083639E-01 -2.891633413941E-01
H69 -4.079555131873E-01  4.773369763767E-01  3.453090784209E-01
H70  4.079555131873E-01 -4.773369763767E-01 -3.453090784209E-01
H71 -4.152914468809E-01  4.815089843773E-01  2.377868685528E-01
H72  4.152914468809E-01 -4.815089843773E-01 -2.377868685528E-01
H73  4.979415782877E-01 -1.935538066780E-01  3.844517182488E-01
H74 -4.979415782877E-01  1.935538066780E-01 -3.844517182488E-01
H75  3.971350396240E-01 -2.300742555497E-01 -4.653457179292E-01
H76 -3.971350396240E-01  2.300742555497E-01  4.653457179292E-01
H77  3.596403947018E-01 -4.272974240840E-01  4.792129965088E-01
H78 -3.596403947018E-01  4.272974240840E-01 -4.792129965088E-01
H79  1.688482973485E-01 -2.769421858352E-01 -4.829123091109E-01
H80 -1.688482973485E-01  2.769421858352E-01  4.829123091109E-01
H81  1.309802875369E-01  2.248180582603E-02  4.469057526319E-01
H82 -1.309802875369E-01 -2.248180582603E-02 -4.469057526319E-01
H83  3.053292000752E-01  7.982727777199E-02  3.653598686988E-01
H84 -3.053292000752E-01 -7.982727777199E-02 -3.653598686988E-01
H85  3.561955977158E-01  7.350015335178E-02  4.682382079922E-01
H86 -3.561955977158E-01 -7.350015335178E-02 -4.682382079922E-01
H87 -5.678265434184E-02 -3.499018757850E-01  2.763654864441E-01
H88  5.678265434184E-02  3.499018757850E-01 -2.763654864441E-01
H89 -7.151742749472E-02 -4.882402995338E-01  4.120261491894E-01
H90  7.151742749472E-02  4.882402995338E-01 -4.120261491894E-01
H91 -2.732330342421E-01 -3.459433901512E-01  4.124865490454E-01
H92  2.732330342421E-01  3.459433901512E-01 -4.124865490454E-01
H93 -8.885099701520E-02 -2.773338021149E-01  4.634605263732E-01
H94  8.885099701520E-02  2.773338021149E-01 -4.634605263732E-01
H95 -1.843510022114E-02 -1.275650891624E-02  2.706394242479E-01
H96  1.843510022114E-02  1.275650891624E-02 -2.706394242479E-01
H97 -1.097133379691E-01  1.759645218756E-03  3.770390620229E-01
H98  1.097133379691E-01 -1.759645218756E-03 -3.770390620229E-01
H99 -2.479387497315E-01 -8.078052201789E-02  3.051409626749E-01
H100  2.479387497315E-01  8.078052201789E-02 -3.051409626749E-01


#===END

data_OPT_STEP_42

_symmetry_space_group_name_H-M 'P 1'
_cell_length_a      7.18587551
_cell_length_b      7.53676532
_cell_length_c     16.32254020
_cell_angle_alpha   91.993749
_cell_angle_beta   81.534424
_cell_angle_gamma   87.352067

loop_
_atom_site_label
_atom_site_fract_x
_atom_site_fract_y
_atom_site_fract_z
SI1  2.410558666711E-01 -2.976176650496E-01  3.214948141124E-01
SI2 -2.410558666711E-01  2.976176650496E-01 -3.214948141124E-01
C3  4.492187901621E-01 -6.174018603559E-02  8.075973622199E-02
C4 -4.492187901621E-01  6.174018603559E-02 -8.075973622199E-02
C5  3.190157093607E-01  4.529679322613E-02  4.510370258803E-02
C6 -3.190157093607E-01 -4.529679322613E-02 -4.510370258803E-02
C7  1.384010440136E-01  9.082384620728E-02  8.742991877643E-02
C8 -1.384010440136E-01 -9.082384620728E-02 -8.742991877643E-02
C9  9.335665873866E-03  1.942665056855E-01  5.308099161074E-02
C10 -9.335665873866E-03 -1.942665056855E-01 -5.308099161074E-02
C11 -1.736765577025E-01  2.413795888975E-01  9.683521953997E-02
C12  1.736765577025E-01 -2.413795888975E-01 -9.683521953997E-02
C13 -2.992246434240E-01  3.405970756555E-01  6.108285884491E-02
C14  2.992246434240E-01 -3.405970756555E-01 -6.108285884491E-02
C15 -2.507094286429E-01  3.979135642586E-01 -2.096314466550E-02
C16  2.507094286429E-01 -3.979135642586E-01  2.096314466550E-02
C17 -7.825431471415E-02  3.558553436510E-01 -6.487432572110E-02
C18  7.825431471415E-02 -3.558553436510E-01  6.487432572110E-02
C19  5.869303385856E-02  2.532613548471E-01 -2.969782415494E-02
C20 -5.869303385856E-02 -2.532613548471E-01  2.969782415494E-02
C21  2.361888093280E-01  2.089249602099E-01 -7.236742006511E-02
C22 -2.361888093280E-01 -2.089249602099E-01  7.236742006511E-02
C23  3.696066354486E-01  1.071512712387E-01 -3.719176303564E-02
C24 -3.696066354486E-01 -1.071512712387E-01  3.719176303564E-02
C25  3.945756585150E-01 -1.296012164448E-01  1.595743946136E-01
C26 -3.945756585150E-01  1.296012164448E-01 -1.595743946136E-01
C27  3.424862641819E-01 -1.940901936973E-01  2.257698322501E-01
C28 -3.424862641819E-01  1.940901936973E-01 -2.257698322501E-01
C29  3.112456785872E-01  4.547883139002E-01  3.121504046837E-01
C30 -3.112456785872E-01 -4.547883139002E-01 -3.121504046837E-01
C31  2.183855236964E-01  3.581632543870E-01  2.464550039521E-01
C32 -2.183855236964E-01 -3.581632543870E-01 -2.464550039521E-01
C33 -4.751109812072E-01  4.221237722059E-01  2.953751562794E-01
C34  4.751109812072E-01 -4.221237722059E-01 -2.953751562794E-01
C35  3.468073950358E-01 -1.869812404094E-01  4.092413571789E-01
C36 -3.468073950358E-01  1.869812404094E-01 -4.092413571789E-01
C37  3.169376900329E-01 -2.860458037311E-01  4.895434678838E-01
C38 -3.169376900329E-01  2.860458037311E-01 -4.895434678838E-01
C39  2.823579885727E-01  8.528406619008E-03  4.232020145488E-01
C40 -2.823579885727E-01 -8.528406619008E-03 -4.232020145488E-01
C41 -2.565133029483E-02 -2.683389525456E-01  3.292613197136E-01
C42  2.565133029483E-02  2.683389525456E-01 -3.292613197136E-01
C43 -1.186901308413E-01 -3.487864617772E-01  4.085270124473E-01
C44  1.186901308413E-01  3.487864617772E-01 -4.085270124473E-01
C45 -1.037067741250E-01 -7.975235653711E-02  3.192162181514E-01
C46  1.037067741250E-01  7.975235653711E-02 -3.192162181514E-01
H47  9.915433766880E-02  4.062230039959E-02  1.485754955676E-01
H48 -9.915433766880E-02 -4.062230039959E-02 -1.485754955676E-01
H49 -2.112723183095E-01  1.935137529085E-01  1.587071313228E-01
H50  2.112723183095E-01 -1.935137529085E-01 -1.587071313228E-01
H51 -4.388283466711E-01  3.733288845280E-01  9.471323069750E-02
H52  4.388283466711E-01 -3.733288845280E-01 -9.471323069750E-02
H53 -3.538400394155E-01  4.759184870961E-01 -4.839275229217E-02
H54  3.538400394155E-01 -4.759184870961E-01  4.839275229217E-02
H55 -4.114786376715E-02  4.009248497193E-01 -1.272040950090E-01
H56  4.114786376715E-02 -4.009248497193E-01  1.272040950090E-01
H57  2.747463270307E-01  2.539052292176E-01 -1.347221913064E-01
H58 -2.747463270307E-01 -2.539052292176E-01  1.347221913064E-01
H59  2.594476111671E-01  4.020760343967E-01  3.728536421173E-01
H60 -2.594476111671E-01 -4.020760343967E-01 -3.728536421173E-01
H61  2.546596856347E-01  4.145615428473E-01  1.856067462719E-01
H62 -2.546596856347E-01 -4.145615428473E-01 -1.856067462719E-01
H63  6.458724117592E-02  3.640596667056E-01  2.611082978835E-01
H64 -6.458724117592E-02 -3.640596667056E-01 -2.611082978835E-01
H65  2.663576276433E-01  2.175451810194E-01  2.398350642392E-01
H66 -2.663576276433E-01 -2.175451810194E-01 -2.398350642392E-01
H67 -4.369603441249E-01  2.791478545133E-01  2.888604549027E-01
H68  4.369603441249E-01 -2.791478545133E-01 -2.888604549027E-01
H69 -4.065726896282E-01  4.767721431099E-01  3.454062258683E-01
H70  4.065726896282E-01 -4.767721431099E-01 -3.454062258683E-01
H71 -4.150214358599E-01  4.820640233138E-01  2.378555834072E-01
H72  4.150214358599E-01 -4.820640233138E-01 -2.378555834072E-01
H73  4.983795994460E-01 -1.933159469610E-01  3.853744825230E-01
H74 -4.983795994460E-01  1.933159469610E-01 -3.853744825230E-01
H75  3.968194692307E-01 -2.300363207102E-01 -4.644200400626E-01
H76 -3.968194692307E-01  2.300363207102E-01  4.644200400626E-01
H77  3.594354906799E-01 -4.272733520810E-01  4.798201064609E-01
H78 -3.594354906799E-01  4.272733520810E-01 -4.798201064609E-01
H79  1.687331231328E-01 -2.766065021294E-01 -4.824908019438E-01
H80 -1.687331231328E-01  2.766065021294E-01  4.824908019438E-01
H81  1.316576579670E-01  2.330318274958E-02  4.469407996641E-01
H82 -1.316576579670E-01 -2.330318274958E-02 -4.469407996641E-01
H83  3.066101018571E-01  8.026931185501E-02  3.657555052105E-01
H84 -3.066101018571E-01 -8.026931185501E-02 -3.657555052105E-01
H85  3.564832610646E-01  7.369406386318E-02  4.689748705910E-01
H86 -3.564832610646E-01 -7.369406386318E-02 -4.689748705910E-01
H87 -5.565715709596E-02 -3.506953289277E-01  2.762634557207E-01
H88  5.565715709596E-02  3.506953289277E-01 -2.762634557207E-01
H89 -6.998088239219E-02 -4.872449522442E-01  4.127213704593E-01
H90  6.998088239219E-02  4.872449522442E-01 -4.127213704593E-01
H91 -2.720931720363E-01 -3.455984499397E-01  4.122276367185E-01
H92  2.720931720363E-01  3.455984499397E-01 -4.122276367185E-01
H93 -8.851480155193E-02 -2.751745540897E-01  4.635075539684E-01
H94  8.851480155193E-02  2.751745540897E-01 -4.635075539684E-01
H95 -1.782387215192E-02 -1.335285349836E-02  2.697000862486E-01
H96  1.782387215192E-02  1.335285349836E-02 -2.697000862486E-01
H97 -1.094994394259E-01  2.517443850705E-03  3.761543259903E-01
H98  1.094994394259E-01 -2.517443850705E-03 -3.761543259903E-01
H99 -2.472534197004E-01 -8.131726540310E-02  3.039933338611E-01
H100  2.472534197004E-01  8.131726540310E-02 -3.039933338611E-01


#===END

data_OPT_STEP_43

_symmetry_space_group_name_H-M 'P 1'
_cell_length_a      7.18666937
_cell_length_b      7.53487661
_cell_length_c     16.29894429
_cell_angle_alpha   92.015238
_cell_angle_beta   81.693944
_cell_angle_gamma   87.291925

loop_
_atom_site_label
_atom_site_fract_x
_atom_site_fract_y
_atom_site_fract_z
SI1  2.421996581746E-01 -2.977318801577E-01  3.216098624757E-01
SI2 -2.421996581746E-01  2.977318801577E-01 -3.216098624757E-01
C3  4.497837112224E-01 -6.185473937876E-02  8.079629107455E-02
C4 -4.497837112224E-01  6.185473937876E-02 -8.079629107455E-02
C5  3.192777582573E-01  4.522734000084E-02  4.511193320790E-02
C6 -3.192777582573E-01 -4.522734000084E-02 -4.511193320790E-02
C7  1.389250329139E-01  9.079953470709E-02  8.749473188759E-02
C8 -1.389250329139E-01 -9.079953470709E-02 -8.749473188759E-02
C9  9.560334467879E-03  1.943134187496E-01  5.312823623256E-02
C10 -9.560334467879E-03 -1.943134187496E-01 -5.312823623256E-02
C11 -1.731396731223E-01  2.415067937007E-01  9.695692268394E-02
C12  1.731396731223E-01 -2.415067937007E-01 -9.695692268394E-02
C13 -2.990397164794E-01  3.407493655187E-01  6.117497717929E-02
C14  2.990397164794E-01 -3.407493655187E-01 -6.117497717929E-02
C15 -2.511418022962E-01  3.980814604077E-01 -2.094530433855E-02
C16  2.511418022962E-01 -3.980814604077E-01  2.094530433855E-02
C17 -7.895085583923E-02  3.560292200082E-01 -6.489370390142E-02
C18  7.895085583923E-02 -3.560292200082E-01  6.489370390142E-02
C19  5.829637220289E-02  2.533232871219E-01 -2.972089233760E-02
C20 -5.829637220289E-02 -2.533232871219E-01  2.972089233760E-02
C21  2.355658640889E-01  2.091048088800E-01 -7.237493908789E-02
C22 -2.355658640889E-01 -2.091048088800E-01  7.237493908789E-02
C23  3.693026743334E-01  1.073097734834E-01 -3.718588633150E-02
C24 -3.693026743334E-01 -1.073097734834E-01  3.718588633150E-02
C25  3.956056795928E-01 -1.297483953606E-01  1.596847451817E-01
C26 -3.956056795928E-01  1.297483953606E-01 -1.596847451817E-01
C27  3.436877679290E-01 -1.940658651414E-01  2.259665178223E-01
C28 -3.436877679290E-01  1.940658651414E-01 -2.259665178223E-01
C29  3.128140922754E-01  4.546730505549E-01  3.121902057669E-01
C30 -3.128140922754E-01 -4.546730505549E-01 -3.121902057669E-01
C31  2.199015781209E-01  3.581629644624E-01  2.463369509706E-01
C32 -2.199015781209E-01 -3.581629644624E-01 -2.463369509706E-01
C33 -4.736242650938E-01  4.220964985461E-01  2.954497667793E-01
C34  4.736242650938E-01 -4.220964985461E-01 -2.954497667793E-01
C35  3.473809543959E-01 -1.869380696403E-01  4.097433573200E-01
C36 -3.473809543959E-01  1.869380696403E-01 -4.097433573200E-01
C37  3.170254342056E-01 -2.857512807657E-01  4.901376142365E-01
C38 -3.170254342056E-01  2.857512807657E-01 -4.901376142365E-01
C39  2.828873996861E-01  8.726719306048E-03  4.235434329938E-01
C40 -2.828873996861E-01 -8.726719306048E-03 -4.235434329938E-01
C41 -2.443771315645E-02 -2.687180587723E-01  3.290428469225E-01
C42  2.443771315645E-02  2.687180587723E-01 -3.290428469225E-01
C43 -1.172255418628E-01 -3.489938998529E-01  4.083525556415E-01
C44  1.172255418628E-01  3.489938998529E-01 -4.083525556415E-01
C45 -1.029157491073E-01 -8.024602311161E-02  3.188751020572E-01
C46  1.029157491073E-01  8.024602311161E-02 -3.188751020572E-01
H47  1.001244235175E-01  4.046051231945E-02  1.486374028804E-01
H48 -1.001244235175E-01 -4.046051231945E-02 -1.486374028804E-01
H49 -2.102199542907E-01  1.935901000027E-01  1.588706016189E-01
H50  2.102199542907E-01 -1.935901000027E-01 -1.588706016189E-01
H51 -4.384000391616E-01  3.734275483478E-01  9.483582505694E-02
H52  4.384000391616E-01 -3.734275483478E-01 -9.483582505694E-02
H53 -3.544406628976E-01  4.762558328155E-01 -4.838000867729E-02
H54  3.544406628976E-01 -4.762558328155E-01  4.838000867729E-02
H55 -4.234702010390E-02  4.011455972691E-01 -1.272667496567E-01
H56  4.234702010390E-02 -4.011455972691E-01  1.272667496567E-01
H57  2.736724633267E-01  2.541787490441E-01 -1.347657318976E-01
H58 -2.736724633267E-01 -2.541787490441E-01  1.347657318976E-01
H59  2.613739875915E-01  4.018486199724E-01  3.728987518750E-01
H60 -2.613739875915E-01 -4.018486199724E-01 -3.728987518750E-01
H61  2.561217756544E-01  4.145194505686E-01  1.854583742527E-01
H62 -2.561217756544E-01 -4.145194505686E-01 -1.854583742527E-01
H63  6.616076991998E-02  3.642828274050E-01  2.608684793421E-01
H64 -6.616076991998E-02 -3.642828274050E-01 -2.608684793421E-01
H65  2.678535147189E-01  2.174704883778E-01  2.397154712799E-01
H66 -2.678535147189E-01 -2.174704883778E-01 -2.397154712799E-01
H67 -4.353048232157E-01  2.790834577826E-01  2.887942205574E-01
H68  4.353048232157E-01 -2.790834577826E-01 -2.887942205574E-01
H69 -4.049795620186E-01  4.765349911177E-01  3.456275671835E-01
H70  4.049795620186E-01 -4.765349911177E-01 -3.456275671835E-01
H71 -4.138508175739E-01  4.822701726205E-01  2.379534093715E-01
H72  4.138508175739E-01 -4.822701726205E-01 -2.379534093715E-01
H73  4.989787641558E-01 -1.933734334143E-01  3.862079277887E-01
H74 -4.989787641558E-01  1.933734334143E-01 -3.862079277887E-01
H75  3.966729892282E-01 -2.297268052468E-01 -4.635815528235E-01
H76 -3.966729892282E-01  2.297268052468E-01  4.635815528235E-01
H77  3.593079174869E-01 -4.271052473857E-01  4.805160701235E-01
H78 -3.593079174869E-01  4.271052473857E-01 -4.805160701235E-01
H79  1.687810346099E-01 -2.760374512702E-01 -4.821617798797E-01
H80 -1.687810346099E-01  2.760374512702E-01  4.821617798797E-01
H81  1.317575658562E-01  2.365098198116E-02  4.464727371539E-01
H82 -1.317575658562E-01 -2.365098198116E-02 -4.464727371539E-01
H83  3.087052964203E-01  8.041243877401E-02  3.660831390737E-01
H84 -3.087052964203E-01 -8.041243877401E-02 -3.660831390737E-01
H85  3.557756629219E-01  7.396210665413E-02  4.700283129469E-01
H86 -3.557756629219E-01 -7.396210665413E-02 -4.700283129469E-01
H87 -5.435890360727E-02 -3.512690344926E-01  2.759744769261E-01
H88  5.435890360727E-02  3.512690344926E-01 -2.759744769261E-01
H89 -6.839301084160E-02 -4.874470704506E-01  4.127216254557E-01
H90  6.839301084160E-02  4.874470704506E-01 -4.127216254557E-01
H91 -2.705431471470E-01 -3.457793745413E-01  4.119072960718E-01
H92  2.705431471470E-01  3.457793745413E-01 -4.119072960718E-01
H93 -8.715927412043E-02 -2.751037172229E-01  4.633903158660E-01
H94  8.715927412043E-02  2.751037172229E-01 -4.633903158660E-01
H95 -1.720711047784E-02 -1.386529512878E-02  2.693613799652E-01
H96  1.720711047784E-02  1.386529512878E-02 -2.693613799652E-01
H97 -1.088351877569E-01  2.172647014316E-03  3.758975020123E-01
H98  1.088351877569E-01 -2.172647014316E-03 -3.758975020123E-01
H99 -2.464878771981E-01 -8.207780858510E-02  3.034787483714E-01
H100  2.464878771981E-01  8.207780858510E-02 -3.034787483714E-01


#===END

data_OPT_STEP_44

_symmetry_space_group_name_H-M 'P 1'
_cell_length_a      7.19222529
_cell_length_b      7.53383275
_cell_length_c     16.27632506
_cell_angle_alpha   91.991209
_cell_angle_beta   81.780130
_cell_angle_gamma   87.169912

loop_
_atom_site_label
_atom_site_fract_x
_atom_site_fract_y
_atom_site_fract_z
SI1  2.433044926217E-01 -2.979069767814E-01  3.218925329171E-01
SI2 -2.433044926217E-01  2.979069767814E-01 -3.218925329171E-01
C3  4.502098831802E-01 -6.217925226636E-02  8.082610075718E-02
C4 -4.502098831802E-01  6.217925226636E-02 -8.082610075718E-02
C5  3.194469872350E-01  4.502861029516E-02  4.512058258760E-02
C6 -3.194469872350E-01 -4.502861029516E-02 -4.512058258760E-02
C7  1.393073632948E-01  9.060393177820E-02  8.757038212461E-02
C8 -1.393073632948E-01 -9.060393177820E-02 -8.757038212461E-02
C9  9.714778972897E-03  1.942889053064E-01  5.320623822014E-02
C10 -9.714778972897E-03 -1.942889053064E-01 -5.320623822014E-02
C11 -1.727365494992E-01  2.415043068706E-01  9.712263437310E-02
C12  1.727365494992E-01 -2.415043068706E-01 -9.712263437310E-02
C13 -2.989255803323E-01  3.407354251706E-01  6.129127860672E-02
C14  2.989255803323E-01 -3.407354251706E-01 -6.129127860672E-02
C15 -2.515177637924E-01  3.982450621890E-01 -2.090105091632E-02
C16  2.515177637924E-01 -3.982450621890E-01  2.090105091632E-02
C17 -7.954255085749E-02  3.562464022139E-01 -6.491394974993E-02
C18  7.954255085749E-02 -3.562464022139E-01  6.491394974993E-02
C19  5.795440944025E-02  2.534327347824E-01 -2.973052985277E-02
C20 -5.795440944025E-02 -2.534327347824E-01  2.973052985277E-02
C21  2.350108391532E-01  2.092348975185E-01 -7.244031575531E-02
C22 -2.350108391532E-01 -2.092348975185E-01  7.244031575531E-02
C23  3.690061294050E-01  1.073565095572E-01 -3.723047718686E-02
C24 -3.690061294050E-01 -1.073565095572E-01  3.723047718686E-02
C25  3.964594172749E-01 -1.301470430164E-01  1.598072402707E-01
C26 -3.964594172749E-01  1.301470430164E-01 -1.598072402707E-01
C27  3.447153910053E-01 -1.943012527046E-01  2.261967764687E-01
C28 -3.447153910053E-01  1.943012527046E-01 -2.261967764687E-01
C29  3.143503728657E-01  4.543988960436E-01  3.125058886497E-01
C30 -3.143503728657E-01 -4.543988960436E-01 -3.125058886497E-01
C31  2.222072252675E-01  3.580929283351E-01  2.463174378711E-01
C32 -2.222072252675E-01 -3.580929283351E-01 -2.463174378711E-01
C33 -4.722644832740E-01  4.217031241374E-01  2.961014899812E-01
C34  4.722644832740E-01 -4.217031241374E-01 -2.961014899812E-01
C35  3.481529048519E-01 -1.870953353867E-01  4.102017276875E-01
C36 -3.481529048519E-01  1.870953353867E-01 -4.102017276875E-01
C37  3.173521958934E-01 -2.854865607121E-01  4.907862724070E-01
C38 -3.173521958934E-01  2.854865607121E-01 -4.907862724070E-01
C39  2.841042874467E-01  8.799184666356E-03  4.236794819086E-01
C40 -2.841042874467E-01 -8.799184666356E-03 -4.236794819086E-01
C41 -2.317076782941E-02 -2.687103285205E-01  3.291624509158E-01
C42  2.317076782941E-02  2.687103285205E-01 -3.291624509158E-01
C43 -1.158261724500E-01 -3.490821523483E-01  4.084577219787E-01
C44  1.158261724500E-01  3.490821523483E-01 -4.084577219787E-01
C45 -1.018664282556E-01 -8.016784673556E-02  3.190965741476E-01
C46  1.018664282556E-01  8.016784673556E-02 -3.190965741476E-01
H47  1.008864749339E-01  4.013305113450E-02  1.487572141135E-01
H48 -1.008864749339E-01 -4.013305113450E-02 -1.487572141135E-01
H49 -2.094104924501E-01  1.934449094678E-01  1.590844445376E-01
H50  2.094104924501E-01 -1.934449094678E-01 -1.590844445376E-01
H51 -4.380868522605E-01  3.733970200539E-01  9.503893174041E-02
H52  4.380868522605E-01 -3.733970200539E-01 -9.503893174041E-02
H53 -3.550138090991E-01  4.763416429266E-01 -4.843292168742E-02
H54  3.550138090991E-01 -4.763416429266E-01  4.843292168742E-02
H55 -4.333909017404E-02  4.015000225887E-01 -1.273451235697E-01
H56  4.333909017404E-02 -4.015000225887E-01  1.273451235697E-01
H57  2.728210157011E-01  2.546836193983E-01 -1.348100775178E-01
H58 -2.728210157011E-01 -2.546836193983E-01  1.348100775178E-01
H59  2.627967044946E-01  4.014786398507E-01  3.731864481429E-01
H60 -2.627967044946E-01 -4.014786398507E-01 -3.731864481429E-01
H61  2.585132428624E-01  4.146510073805E-01  1.854710962741E-01
H62 -2.585132428624E-01 -4.146510073805E-01 -1.854710962741E-01
H63  6.861505200297E-02  3.641984454713E-01  2.605756297584E-01
H64 -6.861505200297E-02 -3.641984454713E-01 -2.605756297584E-01
H65  2.705665235297E-01  2.174052272049E-01  2.396506776732E-01
H66 -2.705665235297E-01 -2.174052272049E-01 -2.396506776732E-01
H67 -4.336978199451E-01  2.786160140327E-01  2.894289021264E-01
H68  4.336978199451E-01 -2.786160140327E-01 -2.894289021264E-01
H69 -4.041204175978E-01  4.759841394565E-01  3.465330597465E-01
H70  4.041204175978E-01 -4.759841394565E-01 -3.465330597465E-01
H71 -4.123513719325E-01  4.819739090117E-01  2.386429703805E-01
H72  4.123513719325E-01 -4.819739090117E-01 -2.386429703805E-01
H73  4.997077085501E-01 -1.940771649607E-01  3.868715831200E-01
H74 -4.997077085501E-01  1.940771649607E-01 -3.868715831200E-01
H75  3.968890397021E-01 -2.295120930734E-01 -4.628400430316E-01
H76 -3.968890397021E-01  2.295120930734E-01  4.628400430316E-01
H77  3.593673121365E-01 -4.270517088341E-01  4.813385007452E-01
H78 -3.593673121365E-01  4.270517088341E-01 -4.813385007452E-01
H79  1.690947279812E-01 -2.752600766176E-01 -4.816314039943E-01
H80 -1.690947279812E-01  2.752600766176E-01  4.816314039943E-01
H81  1.330884761795E-01  2.447692916607E-02  4.464119958984E-01
H82 -1.330884761795E-01 -2.447692916607E-02 -4.464119958984E-01
H83  3.103102986162E-01  8.019084145053E-02  3.661067800764E-01
H84 -3.103102986162E-01 -8.019084145053E-02 -3.661067800764E-01
H85  3.569316753665E-01  7.379238075255E-02  4.701980067749E-01
H86 -3.569316753665E-01 -7.379238075255E-02 -4.701980067749E-01
H87 -5.302931847557E-02 -3.509973968233E-01  2.759714870389E-01
H88  5.302931847557E-02  3.509973968233E-01 -2.759714870389E-01
H89 -6.707373106252E-02 -4.876029094517E-01  4.128253813062E-01
H90  6.707373106252E-02  4.876029094517E-01 -4.128253813062E-01
H91 -2.689954112865E-01 -3.454861583519E-01  4.119292962968E-01
H92  2.689954112865E-01  3.454861583519E-01 -4.119292962968E-01
H93 -8.581432414327E-02 -2.754577145829E-01  4.636008639086E-01
H94  8.581432414327E-02  2.754577145829E-01 -4.636008639086E-01
H95 -1.642328232211E-02 -1.371782240136E-02  2.695553258083E-01
H96  1.642328232211E-02  1.371782240136E-02 -2.695553258083E-01
H97 -1.076569218001E-01  2.050675183462E-03  3.762359246391E-01
H98  1.076569218001E-01 -2.050675183462E-03 -3.762359246391E-01
H99 -2.454880715461E-01 -8.183157044263E-02  3.037228554158E-01
H100  2.454880715461E-01  8.183157044263E-02 -3.037228554158E-01


#===END

data_OPT_STEP_45

_symmetry_space_group_name_H-M 'P 1'
_cell_length_a      7.18927857
_cell_length_b      7.53864464
_cell_length_c     16.21876478
_cell_angle_alpha   92.067940
_cell_angle_beta   82.073016
_cell_angle_gamma   87.104262

loop_
_atom_site_label
_atom_site_fract_x
_atom_site_fract_y
_atom_site_fract_z
SI1  2.442299131260E-01 -2.977518215156E-01  3.223046065671E-01
SI2 -2.442299131260E-01  2.977518215156E-01 -3.223046065671E-01
C3  4.510640868539E-01 -6.198783724073E-02  8.110562659340E-02
C4 -4.510640868539E-01  6.198783724073E-02 -8.110562659340E-02
C5  3.197164620550E-01  4.516075549362E-02  4.528103293604E-02
C6 -3.197164620550E-01 -4.516075549362E-02 -4.528103293604E-02
C7  1.398578591919E-01  9.090233436220E-02  8.781513478771E-02
C8 -1.398578591919E-01 -9.090233436220E-02 -8.781513478771E-02
C9  9.836258848258E-03  1.946919814152E-01  5.337640547332E-02
C10 -9.836258848258E-03 -1.946919814152E-01 -5.337640547332E-02
C11 -1.722432226094E-01  2.421506114893E-01  9.740476481944E-02
C12  1.722432226094E-01 -2.421506114893E-01 -9.740476481944E-02
C13 -2.989399291445E-01  3.414458906821E-01  6.151306568387E-02
C14  2.989399291445E-01 -3.414458906821E-01 -6.151306568387E-02
C15 -2.524257753232E-01  3.986863612928E-01 -2.089257528343E-02
C16  2.524257753232E-01 -3.986863612928E-01  2.089257528343E-02
C17 -8.080292214835E-02  3.563667414785E-01 -6.506801733676E-02
C18  8.080292214835E-02 -3.563667414785E-01  6.506801733676E-02
C19  5.719171118306E-02  2.535461284854E-01 -2.981815042225E-02
C20 -5.719171118306E-02 -2.535461284854E-01  2.981815042225E-02
C21  2.338940453817E-01  2.089977300571E-01 -7.269372195223E-02
C22 -2.338940453817E-01 -2.089977300571E-01  7.269372195223E-02
C23  3.685234106975E-01  1.075034636649E-01 -3.727735843274E-02
C24 -3.685234106975E-01 -1.075034636649E-01  3.727735843274E-02
C25  3.980740026014E-01 -1.300567254738E-01  1.602319381775E-01
C26 -3.980740026014E-01  1.300567254738E-01 -1.602319381775E-01
C27  3.460952128801E-01 -1.937680526629E-01  2.267452957535E-01
C28 -3.460952128801E-01  1.937680526629E-01 -2.267452957535E-01
C29  3.163888235270E-01  4.547579769936E-01  3.130413415576E-01
C30 -3.163888235270E-01 -4.547579769936E-01 -3.130413415576E-01
C31  2.239015215266E-01  3.575904739532E-01  2.467455962414E-01
C32 -2.239015215266E-01 -3.575904739532E-01 -2.467455962414E-01
C33 -4.702919796581E-01  4.224860324101E-01  2.965978879363E-01
C34  4.702919796581E-01 -4.224860324101E-01 -2.965978879363E-01
C35  3.477933880297E-01 -1.863934245485E-01  4.115375474214E-01
C36 -3.477933880297E-01  1.863934245485E-01 -4.115375474214E-01
C37  3.172833940351E-01 -2.846642297146E-01  4.922709228630E-01
C38 -3.172833940351E-01  2.846642297146E-01 -4.922709228630E-01
C39  2.828967475750E-01  9.441834499605E-03  4.250633490757E-01
C40 -2.828967475750E-01 -9.441834499605E-03 -4.250633490757E-01
C41 -2.219574216941E-02 -2.694533549760E-01  3.288674050277E-01
C42  2.219574216941E-02  2.694533549760E-01 -3.288674050277E-01
C43 -1.138900753924E-01 -3.488482996638E-01  4.085648249403E-01
C44  1.138900753924E-01  3.488482996638E-01 -4.085648249403E-01
C45 -1.019092995105E-01 -8.126059102017E-02  3.182028138463E-01
C46  1.019092995105E-01  8.126059102017E-02 -3.182028138463E-01
H47  1.020543277601E-01  4.050588673934E-02  1.491229298351E-01
H48 -1.020543277601E-01 -4.050588673934E-02 -1.491229298351E-01
H49 -2.082329932946E-01  1.942916500756E-01  1.595369538016E-01
H50  2.082329932946E-01 -1.942916500756E-01 -1.595369538016E-01
H51 -4.377659929731E-01  3.743176868010E-01  9.545115841071E-02
H52  4.377659929731E-01 -3.743176868010E-01 -9.545115841071E-02
H53 -3.560967391694E-01  4.769753491122E-01 -4.852576758189E-02
H54  3.560967391694E-01 -4.769753491122E-01  4.852576758189E-02
H55 -4.532968662089E-02  4.015321500463E-01 -1.276332556921E-01
H56  4.532968662089E-02 -4.015321500463E-01  1.276332556921E-01
H57  2.711033545569E-01  2.544688869524E-01 -1.351760380753E-01
H58 -2.711033545569E-01 -2.544688869524E-01  1.351760380753E-01
H59  2.657505068136E-01  4.021591377582E-01  3.739637802579E-01
H60 -2.657505068136E-01 -4.021591377582E-01 -3.739637802579E-01
H61  2.591367847526E-01  4.139033860008E-01  1.856905218451E-01
H62 -2.591367847526E-01 -4.139033860008E-01 -1.856905218451E-01
H63  7.044140438292E-02  3.630591204303E-01  2.610361863858E-01
H64 -7.044140438292E-02 -3.630591204303E-01 -2.610361863858E-01
H65  2.729469571913E-01  2.170703792438E-01  2.401000937458E-01
H66 -2.729469571913E-01 -2.170703792438E-01 -2.401000937458E-01
H67 -4.313233749409E-01  2.794656403499E-01  2.902200480906E-01
H68  4.313233749409E-01 -2.794656403499E-01 -2.902200480906E-01
H69 -4.017083072934E-01  4.776387593043E-01  3.470292984648E-01
H70  4.017083072934E-01 -4.776387593043E-01 -3.470292984648E-01
H71 -4.112935426898E-01  4.821083459600E-01  2.388080693916E-01
H72  4.112935426898E-01 -4.821083459600E-01 -2.388080693916E-01
H73  4.994076923012E-01 -1.928228997202E-01  3.886421372260E-01
H74 -4.994076923012E-01  1.928228997202E-01 -3.886421372260E-01
H75  3.964566045284E-01 -2.279428942662E-01 -4.609859591288E-01
H76 -3.964566045284E-01  2.279428942662E-01  4.609859591288E-01
H77  3.600308505744E-01 -4.263316997764E-01  4.828241879300E-01
H78 -3.600308505744E-01  4.263316997764E-01 -4.828241879300E-01
H79  1.688854675785E-01 -2.750090104274E-01 -4.803579681296E-01
H80 -1.688854675785E-01  2.750090104274E-01  4.803579681296E-01
H81  1.315039137680E-01  2.488163312502E-02  4.468838796644E-01
H82 -1.315039137680E-01 -2.488163312502E-02 -4.468838796644E-01
H83  3.103632610626E-01  8.119625293613E-02  3.675651429507E-01
H84 -3.103632610626E-01 -8.119625293613E-02 -3.675651429507E-01
H85  3.542285579514E-01  7.446665985521E-02  4.725145789629E-01
H86 -3.542285579514E-01 -7.446665985521E-02 -4.725145789629E-01
H87 -5.205660995947E-02 -3.528218733473E-01  2.756637031609E-01
H88  5.205660995947E-02  3.528218733473E-01 -2.756637031609E-01
H89 -6.520945667165E-02 -4.873971687279E-01  4.132727822435E-01
H90  6.520945667165E-02  4.873971687279E-01 -4.132727822435E-01
H91 -2.670596694439E-01 -3.447982855831E-01  4.121169956709E-01
H92  2.670596694439E-01  3.447982855831E-01 -4.121169956709E-01
H93 -8.315323922623E-02 -2.745632530801E-01  4.637190365416E-01
H94  8.315323922623E-02  2.745632530801E-01 -4.637190365416E-01
H95 -1.821007856628E-02 -1.558604065281E-02  2.680468260728E-01
H96  1.821007856628E-02  1.558604065281E-02 -2.680468260728E-01
H97 -1.062183548979E-01  2.215065183078E-03  3.750346682139E-01
H98  1.062183548979E-01 -2.215065183078E-03 -3.750346682139E-01
H99 -2.461004159211E-01 -8.363156688923E-02  3.033580230166E-01
H100  2.461004159211E-01  8.363156688923E-02 -3.033580230166E-01


#===END

data_OPT_STEP_46

_symmetry_space_group_name_H-M 'P 1'
_cell_length_a      7.20879121
_cell_length_b      7.53938583
_cell_length_c     16.18735570
_cell_angle_alpha   91.994565
_cell_angle_beta   82.096646
_cell_angle_gamma   86.780715

loop_
_atom_site_label
_atom_site_fract_x
_atom_site_fract_y
_atom_site_fract_z
SI1  2.464021874815E-01 -2.982085489464E-01  3.228797871538E-01
SI2 -2.464021874815E-01  2.982085489464E-01 -3.228797871538E-01
C3  4.517706478235E-01 -6.232608276219E-02  8.129175721167E-02
C4 -4.517706478235E-01  6.232608276219E-02 -8.129175721167E-02
C5  3.199658197345E-01  4.487636721759E-02  4.541935168066E-02
C6 -3.199658197345E-01 -4.487636721759E-02 -4.541935168066E-02
C7  1.404002553661E-01  9.035722921660E-02  8.802646483298E-02
C8 -1.404002553661E-01 -9.035722921660E-02 -8.802646483298E-02
C9  1.004317890714E-02  1.941257998203E-01  5.348961441323E-02
C10 -1.004317890714E-02 -1.941257998203E-01 -5.348961441323E-02
C11 -1.717953785747E-01  2.409208315957E-01  9.745608443942E-02
C12  1.717953785747E-01 -2.409208315957E-01 -9.745608443942E-02
C13 -2.987905387898E-01  3.403639587027E-01  6.153033671708E-02
C14  2.987905387898E-01 -3.403639587027E-01 -6.153033671708E-02
C15 -2.528415867449E-01  3.985186823366E-01 -2.085842905122E-02
C16  2.528415867449E-01 -3.985186823366E-01  2.085842905122E-02
C17 -8.146037018613E-02  3.567955434876E-01 -6.501453019888E-02
C18  8.146037018613E-02 -3.567955434876E-01  6.501453019888E-02
C19  5.679371843498E-02  2.536031151803E-01 -2.979687645562E-02
C20 -5.679371843498E-02 -2.536031151803E-01  2.979687645562E-02
C21  2.333064700001E-01  2.097236749296E-01 -7.262493095242E-02
C22 -2.333064700001E-01 -2.097236749296E-01  7.262493095242E-02
C23  3.682059661570E-01  1.078069563356E-01 -3.724844447738E-02
C24 -3.682059661570E-01 -1.078069563356E-01  3.724844447738E-02
C25  3.995481472526E-01 -1.308083171136E-01  1.605154049123E-01
C26 -3.995481472526E-01  1.308083171136E-01 -1.605154049123E-01
C27  3.477207293474E-01 -1.941474089173E-01  2.271865718529E-01
C28 -3.477207293474E-01  1.941474089173E-01 -2.271865718529E-01
C29  3.188959537177E-01  4.541399957216E-01  3.135414948366E-01
C30 -3.188959537177E-01 -4.541399957216E-01 -3.135414948366E-01
C31  2.245270003717E-01  3.573358574455E-01  2.478239361516E-01
C32 -2.245270003717E-01 -3.573358574455E-01 -2.478239361516E-01
C33 -4.682676149394E-01  4.212395453002E-01  2.958441607544E-01
C34  4.682676149394E-01 -4.212395453002E-01 -2.958441607544E-01
C35  3.496610754137E-01 -1.873894872567E-01  4.122481966513E-01
C36 -3.496610754137E-01  1.873894872567E-01 -4.122481966513E-01
C37  3.188006509926E-01 -2.846741136172E-01  4.933962053073E-01
C38 -3.188006509926E-01  2.846741136172E-01 -4.933962053073E-01
C39  2.857071309503E-01  8.702248926887E-03  4.253009146371E-01
C40 -2.857071309503E-01 -8.702248926887E-03 -4.253009146371E-01
C41 -1.944635306085E-02 -2.688561649883E-01  3.295674344151E-01
C42  1.944635306085E-02  2.688561649883E-01 -3.295674344151E-01
C43 -1.106699628839E-01 -3.485928407473E-01  4.092388497670E-01
C44  1.106699628839E-01  3.485928407473E-01 -4.092388497670E-01
C45 -9.921062560264E-02 -8.021254332042E-02  3.193958457321E-01
C46  9.921062560264E-02  8.021254332042E-02 -3.193958457321E-01
H47  1.031545324303E-01  3.973360235472E-02  1.494927430816E-01
H48 -1.031545324303E-01 -3.973360235472E-02 -1.494927430816E-01
H49 -2.073293809713E-01  1.924611828970E-01  1.596099292115E-01
H50  2.073293809713E-01 -1.924611828970E-01 -1.596099292115E-01
H51 -4.373195450993E-01  3.726402084807E-01  9.552001607561E-02
H52  4.373195450993E-01 -3.726402084807E-01 -9.552001607561E-02
H53 -3.564037564801E-01  4.775690061757E-01 -4.844325142374E-02
H54  3.564037564801E-01 -4.775690061757E-01  4.844325142374E-02
H55 -4.647683141092E-02  4.026433293105E-01 -1.276245299573E-01
H56  4.647683141092E-02 -4.026433293105E-01  1.276245299573E-01
H57  2.698868884579E-01  2.550736179897E-01 -1.353568332577E-01
H58 -2.698868884579E-01 -2.550736179897E-01  1.353568332577E-01
H59  2.701694931037E-01  4.015985881194E-01  3.748343765846E-01
H60 -2.701694931037E-01 -4.015985881194E-01 -3.748343765846E-01
H61  2.578755278927E-01  4.138340534080E-01  1.864764463089E-01
H62 -2.578755278927E-01 -4.138340534080E-01 -1.864764463089E-01
H63  7.148193886655E-02  3.632082853124E-01  2.630444002011E-01
H64 -7.148193886655E-02 -3.632082853124E-01 -2.630444002011E-01
H65  2.735083473028E-01  2.165663715431E-01  2.409466054326E-01
H66 -2.735083473028E-01 -2.165663715431E-01 -2.409466054326E-01
H67 -4.291854619523E-01  2.781549321832E-01  2.895517757644E-01
H68  4.291854619523E-01 -2.781549321832E-01 -2.895517757644E-01
H69 -3.981680623137E-01  4.764612665976E-01  3.456949629459E-01
H70  3.981680623137E-01 -4.764612665976E-01 -3.456949629459E-01
H71 -4.113226852440E-01  4.803632185368E-01  2.375482172678E-01
H72  4.113226852440E-01 -4.803632185368E-01 -2.375482172678E-01
H73 -4.989044624741E-01 -1.950640604757E-01  3.896867831929E-01
H74  4.989044624741E-01  1.950640604757E-01 -3.896867831929E-01
H75  3.989095489801E-01 -2.291744150236E-01 -4.601453633450E-01
H76 -3.989095489801E-01  2.291744150236E-01  4.601453633450E-01
H77  3.599177098377E-01 -4.265408251069E-01  4.843456382224E-01
H78 -3.599177098377E-01  4.265408251069E-01 -4.843456382224E-01
H79  1.712492702438E-01 -2.727321858014E-01 -4.789733774888E-01
H80 -1.712492702438E-01  2.727321858014E-01  4.789733774888E-01
H81  1.343665613374E-01  2.569205131588E-02  4.463716520111E-01
H82 -1.343665613374E-01 -2.569205131588E-02 -4.463716520111E-01
H83  3.151794348144E-01  8.010302627684E-02  3.677227081203E-01
H84 -3.151794348144E-01 -8.010302627684E-02 -3.677227081203E-01
H85  3.558285876724E-01  7.307485598246E-02  4.733321576240E-01
H86 -3.558285876724E-01 -7.307485598246E-02 -4.733321576240E-01
H87 -4.950693735045E-02 -3.511731664902E-01  2.761652011664E-01
H88  4.950693735045E-02  3.511731664902E-01 -2.761652011664E-01
H89 -6.147179328638E-02 -4.873457341195E-01  4.138592939742E-01
H90  6.147179328638E-02  4.873457341195E-01 -4.138592939742E-01
H91 -2.636054035243E-01 -3.440225740004E-01  4.126595674839E-01
H92  2.636054035243E-01  3.440225740004E-01 -4.126595674839E-01
H93 -8.043405026760E-02 -2.746294467941E-01  4.646564723997E-01
H94  8.043405026760E-02  2.746294467941E-01 -4.646564723997E-01
H95 -1.618239846953E-02 -1.438623059485E-02  2.691632214137E-01
H96  1.618239846953E-02  1.438623059485E-02 -2.691632214137E-01
H97 -1.028817165974E-01  2.461619547715E-03  3.764671747263E-01
H98  1.028817165974E-01 -2.461619547715E-03 -3.764671747263E-01
H99 -2.434819462377E-01 -8.149995403247E-02  3.048993991881E-01
H100  2.434819462377E-01  8.149995403247E-02 -3.048993991881E-01


#===END

data_OPT_STEP_47

_symmetry_space_group_name_H-M 'P 1'
_cell_length_a      7.19771058
_cell_length_b      7.55787456
_cell_length_c     16.15593156
_cell_angle_alpha   92.088107
_cell_angle_beta   82.384186
_cell_angle_gamma   87.031095

loop_
_atom_site_label
_atom_site_fract_x
_atom_site_fract_y
_atom_site_fract_z
SI1  2.468851790776E-01 -2.982162715426E-01  3.228073895951E-01
SI2 -2.468851790776E-01  2.982162715426E-01 -3.228073895951E-01
C3  4.517710283420E-01 -6.255916486904E-02  8.117655130177E-02
C4 -4.517710283420E-01  6.255916486904E-02 -8.117655130177E-02
C5  3.202413603138E-01  4.469077022523E-02  4.533821577265E-02
C6 -3.202413603138E-01 -4.469077022523E-02 -4.533821577265E-02
C7  1.409729952804E-01  9.024632948308E-02  8.799088913729E-02
C8 -1.409729952804E-01 -9.024632948308E-02 -8.799088913729E-02
C9  1.061531171329E-02  1.937792738509E-01  5.343257218877E-02
C10 -1.061531171329E-02 -1.937792738509E-01 -5.343257218877E-02
C11 -1.709397824197E-01  2.412158780194E-01  9.763186420137E-02
C12  1.709397824197E-01 -2.412158780194E-01 -9.763186420137E-02
C13 -2.978843133262E-01  3.405171750199E-01  6.165028138171E-02
C14  2.978843133262E-01 -3.405171750199E-01 -6.165028138171E-02
C15 -2.520642559418E-01  3.985044001556E-01 -2.081243063664E-02
C16  2.520642559418E-01 -3.985044001556E-01  2.081243063664E-02
C17 -8.088890481691E-02  3.567328125532E-01 -6.495826433675E-02
C18  8.088890481691E-02 -3.567328125532E-01  6.495826433675E-02
C19  5.717829650353E-02  2.531521506147E-01 -2.987763263282E-02
C20 -5.717829650353E-02 -2.531521506147E-01  2.987763263282E-02
C21  2.335877383284E-01  2.096558825180E-01 -7.261685989891E-02
C22 -2.335877383284E-01 -2.096558825180E-01  7.261685989891E-02
C23  3.681708889632E-01  1.070517149837E-01 -3.745296868469E-02
C24 -3.681708889632E-01 -1.070517149837E-01  3.745296868469E-02
C25  3.995063152062E-01 -1.309007131080E-01  1.603904309821E-01
C26 -3.995063152062E-01  1.309007131080E-01 -1.603904309821E-01
C27  3.478748173877E-01 -1.941323946644E-01  2.271286253329E-01
C28 -3.478748173877E-01  1.941323946644E-01 -2.271286253329E-01
C29  3.192853617925E-01  4.550136321303E-01  3.134348799759E-01
C30 -3.192853617925E-01 -4.550136321303E-01 -3.134348799759E-01
C31  2.258795218777E-01  3.581442951002E-01  2.469852188982E-01
C32 -2.258795218777E-01 -3.581442951002E-01 -2.469852188982E-01
C33 -4.678246798307E-01  4.230885648014E-01  2.966582179315E-01
C34  4.678246798307E-01 -4.230885648014E-01 -2.966582179315E-01
C35  3.501931459356E-01 -1.872444014732E-01  4.125949485503E-01
C36 -3.501931459356E-01  1.872444014732E-01 -4.125949485503E-01
C37  3.194414932932E-01 -2.844746658540E-01  4.938669428958E-01
C38 -3.194414932932E-01  2.844746658540E-01 -4.938669428958E-01
C39  2.861022331390E-01  8.172369622076E-03  4.257195680749E-01
C40 -2.861022331390E-01 -8.172369622076E-03 -4.257195680749E-01
C41 -1.894640609603E-02 -2.701354584828E-01  3.291857658934E-01
C42  1.894640609603E-02  2.701354584828E-01 -3.291857658934E-01
C43 -1.098304413804E-01 -3.501149320823E-01  4.088329374911E-01
C44  1.098304413804E-01  3.501149320823E-01 -4.088329374911E-01
C45 -9.868085643486E-02 -8.238066113333E-02  3.191527278118E-01
C46  9.868085643486E-02  8.238066113333E-02 -3.191527278118E-01
H47  1.038613039928E-01  3.980545895374E-02  1.494963780361E-01
H48 -1.038613039928E-01 -3.980545895374E-02 -1.494963780361E-01
H49 -2.064956441237E-01  1.928810582637E-01  1.598155801713E-01
H50  2.064956441237E-01 -1.928810582637E-01 -1.598155801713E-01
H51 -4.363205834915E-01  3.728701111065E-01  9.566002750325E-02
H52  4.363205834915E-01 -3.728701111065E-01 -9.566002750325E-02
H53 -3.556538212156E-01  4.776746287363E-01 -4.827366462133E-02
H54  3.556538212156E-01 -4.776746287363E-01  4.827366462133E-02
H55 -4.594256181784E-02  4.020818371676E-01 -1.277629794900E-01
H56  4.594256181784E-02 -4.020818371676E-01  1.277629794900E-01
H57  2.699462793149E-01  2.544598094305E-01 -1.355351056076E-01
H58 -2.699462793149E-01 -2.544598094305E-01  1.355351056076E-01
H59  2.699106240248E-01  4.023781017191E-01  3.745509670669E-01
H60 -2.699106240248E-01 -4.023781017191E-01 -3.745509670669E-01
H61  2.602619631106E-01  4.143712251582E-01  1.856291284715E-01
H62 -2.602619631106E-01 -4.143712251582E-01 -1.856291284715E-01
H63  7.273706558368E-02  3.638051494655E-01  2.614834446957E-01
H64 -7.273706558368E-02 -3.638051494655E-01 -2.614834446957E-01
H65  2.747958818471E-01  2.177409646480E-01  2.402964277143E-01
H66 -2.747958818471E-01 -2.177409646480E-01 -2.402964277143E-01
H67 -4.284810857645E-01  2.805006688610E-01  2.904735493352E-01
H68  4.284810857645E-01 -2.805006688610E-01 -2.904735493352E-01
H69 -3.984485404022E-01  4.787791647760E-01  3.469824112998E-01
H70  3.984485404022E-01 -4.787791647760E-01 -3.469824112998E-01
H71 -4.103851815008E-01  4.822132419457E-01  2.385326489662E-01
H72  4.103851815008E-01 -4.822132419457E-01 -2.385326489662E-01
H73 -4.985578987742E-01 -1.943366756791E-01  3.901717361374E-01
H74  4.985578987742E-01  1.943366756791E-01 -3.901717361374E-01
H75  3.997293239191E-01 -2.288543094276E-01 -4.593630998298E-01
H76 -3.997293239191E-01  2.288543094276E-01  4.593630998298E-01
H77  3.604214580767E-01 -4.258354468392E-01  4.848072295857E-01
H78 -3.604214580767E-01  4.258354468392E-01 -4.848072295857E-01
H79  1.719266113056E-01 -2.731012476919E-01 -4.786632971227E-01
H80 -1.719266113056E-01  2.731012476919E-01  4.786632971227E-01
H81  1.351596568779E-01  2.441414590499E-02  4.469351938240E-01
H82 -1.351596568779E-01 -2.441414590499E-02 -4.469351938240E-01
H83  3.144037025512E-01  7.956054721208E-02  3.680982496757E-01
H84 -3.144037025512E-01 -7.956054721208E-02 -3.680982496757E-01
H85  3.568761564085E-01  7.263572179008E-02  4.737089289523E-01
H86 -3.568761564085E-01 -7.263572179008E-02 -4.737089289523E-01
H87 -4.916797047927E-02 -3.523032774614E-01  2.755636501633E-01
H88  4.916797047927E-02  3.523032774614E-01 -2.755636501633E-01
H89 -6.100765552931E-02 -4.883973028574E-01  4.131872068981E-01
H90  6.100765552931E-02  4.883973028574E-01 -4.131872068981E-01
H91 -2.628509294127E-01 -3.459162892108E-01  4.121037478112E-01
H92  2.628509294127E-01  3.459162892108E-01 -4.121037478112E-01
H93 -7.883299326218E-02 -2.766604213526E-01  4.644450202290E-01
H94  7.883299326218E-02  2.766604213526E-01 -4.644450202290E-01
H95 -1.507031034489E-02 -1.615136332259E-02  2.692534929508E-01
H96  1.507031034489E-02  1.615136332259E-02 -2.692534929508E-01
H97 -1.031869769121E-01 -1.780264129761E-04  3.766584997639E-01
H98  1.031869769121E-01  1.780264129761E-04 -3.766584997639E-01
H99 -2.426390646679E-01 -8.434377137430E-02  3.039269760304E-01
H100  2.426390646679E-01  8.434377137430E-02 -3.039269760304E-01


#===END

data_OPT_STEP_48

_symmetry_space_group_name_H-M 'P 1'
_cell_length_a      7.19921566
_cell_length_b      7.55577975
_cell_length_c     16.16161516
_cell_angle_alpha   92.083329
_cell_angle_beta   82.318843
_cell_angle_gamma   87.022539

loop_
_atom_site_label
_atom_site_fract_x
_atom_site_fract_y
_atom_site_fract_z
SI1  2.468221607954E-01 -2.982022028452E-01  3.228114242413E-01
SI2 -2.468221607954E-01  2.982022028452E-01 -3.228114242413E-01
C3  4.516938616435E-01 -6.245118930879E-02  8.118147047263E-02
C4 -4.516938616435E-01  6.245118930879E-02 -8.118147047263E-02
C5  3.202115075217E-01  4.461807610419E-02  4.530216275593E-02
C6 -3.202115075217E-01 -4.461807610419E-02 -4.530216275593E-02
C7  1.408816086098E-01  9.001252070536E-02  8.793037903917E-02
C8 -1.408816086098E-01 -9.001252070536E-02 -8.793037903917E-02
C9  1.060884439051E-02  1.936506733173E-01  5.342921798906E-02
C10 -1.060884439051E-02 -1.936506733173E-01 -5.342921798906E-02
C11 -1.710465067575E-01  2.407310181933E-01  9.753529598562E-02
C12  1.710465067575E-01 -2.407310181933E-01 -9.753529598562E-02
C13 -2.978013822007E-01  3.405079745980E-01  6.171226968799E-02
C14  2.978013822007E-01 -3.405079745980E-01 -6.171226968799E-02
C15 -2.518205830983E-01  3.985731291152E-01 -2.074335897713E-02
C16  2.518205830983E-01 -3.985731291152E-01  2.074335897713E-02
C17 -8.068043727382E-02  3.565313886261E-01 -6.499493780879E-02
C18  8.068043727382E-02 -3.565313886261E-01  6.499493780879E-02
C19  5.735834873414E-02  2.532608110701E-01 -2.980127309273E-02
C20 -5.735834873414E-02 -2.532608110701E-01  2.980127309273E-02
C21  2.336532628229E-01  2.092071714980E-01 -7.273096075211E-02
C22 -2.336532628229E-01 -2.092071714980E-01  7.273096075211E-02
C23  3.682999946979E-01  1.071780446083E-01 -3.740153898494E-02
C24 -3.682999946979E-01 -1.071780446083E-01  3.740153898494E-02
C25  3.993197621514E-01 -1.307059117732E-01  1.604181139671E-01
C26 -3.993197621514E-01  1.307059117732E-01 -1.604181139671E-01
C27  3.477083751318E-01 -1.940270644414E-01  2.271547450598E-01
C28 -3.477083751318E-01  1.940270644414E-01 -2.271547450598E-01
C29  3.194439531893E-01  4.550529142695E-01  3.133472680723E-01
C30 -3.194439531893E-01 -4.550529142695E-01 -3.133472680723E-01
C31  2.258296634313E-01  3.582055412121E-01  2.470450379518E-01
C32 -2.258296634313E-01 -3.582055412121E-01 -2.470450379518E-01
C33 -4.676086642922E-01  4.234149619736E-01  2.962922532940E-01
C34  4.676086642922E-01 -4.234149619736E-01 -2.962922532940E-01
C35  3.499105114194E-01 -1.871478879253E-01  4.125372169316E-01
C36 -3.499105114194E-01  1.871478879253E-01 -4.125372169316E-01
C37  3.189869337374E-01 -2.842306005907E-01  4.937819482586E-01
C38 -3.189869337374E-01  2.842306005907E-01 -4.937819482586E-01
C39  2.853709255255E-01  8.195784236905E-03  4.256694748957E-01
C40 -2.853709255255E-01 -8.195784236905E-03 -4.256694748957E-01
C41 -1.910867933070E-02 -2.703143219401E-01  3.291873550170E-01
C42  1.910867933070E-02  2.703143219401E-01 -3.291873550170E-01
C43 -1.101543969231E-01 -3.505084632452E-01  4.087889336359E-01
C44  1.101543969231E-01  3.505084632452E-01 -4.087889336359E-01
C45 -9.912276803603E-02 -8.258386317117E-02  3.191658129888E-01
C46  9.912276803603E-02  8.258386317117E-02 -3.191658129888E-01
H47  1.036527489925E-01  3.931935579656E-02  1.493460437167E-01
H48 -1.036527489925E-01 -3.931935579656E-02 -1.493460437167E-01
H49 -2.066924275700E-01  1.924240319993E-01  1.597415543607E-01
H50  2.066924275700E-01 -1.924240319993E-01 -1.597415543607E-01
H51 -4.362740246525E-01  3.729393666160E-01  9.570079533500E-02
H52  4.362740246525E-01 -3.729393666160E-01 -9.570079533500E-02
H53 -3.554660268714E-01  4.775165852726E-01 -4.824635386811E-02
H54  3.554660268714E-01 -4.775165852726E-01  4.824635386811E-02
H55 -4.549023610692E-02  4.023090512540E-01 -1.276351347926E-01
H56  4.549023610692E-02 -4.023090512540E-01  1.276351347926E-01
H57  2.703578802030E-01  2.549054437037E-01 -1.353585262175E-01
H58 -2.703578802030E-01 -2.549054437037E-01  1.353585262175E-01
H59  2.703477894279E-01  4.023234711995E-01  3.744852422923E-01
H60 -2.703477894279E-01 -4.023234711995E-01 -3.744852422923E-01
H61  2.596858022921E-01  4.147038906560E-01  1.857608387749E-01
H62 -2.596858022921E-01 -4.147038906560E-01 -1.857608387749E-01
H63  7.271808928052E-02  3.635585575478E-01  2.617695487621E-01
H64 -7.271808928052E-02 -3.635585575478E-01 -2.617695487621E-01
H65  2.750313777733E-01  2.179656821105E-01  2.401796347927E-01
H66 -2.750313777733E-01 -2.179656821105E-01 -2.401796347927E-01
H67 -4.280143907235E-01  2.808380250434E-01  2.900853719746E-01
H68  4.280143907235E-01 -2.808380250434E-01 -2.900853719746E-01
H69 -3.980620434371E-01  4.792775762809E-01  3.464780129582E-01
H70  3.980620434371E-01 -4.792775762809E-01 -3.464780129582E-01
H71 -4.105336710715E-01  4.826220986851E-01  2.381106435924E-01
H72  4.105336710715E-01 -4.826220986851E-01 -2.381106435924E-01
H73 -4.987750062059E-01 -1.940995525451E-01  3.901072296858E-01
H74  4.987750062059E-01  1.940995525451E-01 -3.901072296858E-01
H75  3.987436600537E-01 -2.280917037189E-01 -4.593738227738E-01
H76 -3.987436600537E-01  2.280917037189E-01  4.593738227738E-01
H77  3.605607632422E-01 -4.255590604977E-01  4.847426625515E-01
H78 -3.605607632422E-01  4.255590604977E-01 -4.847426625515E-01
H79  1.712283632772E-01 -2.732593245406E-01 -4.788787494575E-01
H80 -1.712283632772E-01  2.732593245406E-01  4.788787494575E-01
H81  1.344816329372E-01  2.412156982152E-02  4.470968799158E-01
H82 -1.344816329372E-01 -2.412156982152E-02 -4.470968799158E-01
H83  3.130196896510E-01  7.955135562911E-02  3.680508434854E-01
H84 -3.130196896510E-01 -7.955135562911E-02 -3.680508434854E-01
H85  3.563085799271E-01  7.283800157278E-02  4.734176854812E-01
H86 -3.563085799271E-01 -7.283800157278E-02 -4.734176854812E-01
H87 -4.902641550133E-02 -3.525348513061E-01  2.755445249960E-01
H88  4.902641550133E-02  3.525348513061E-01 -2.755445249960E-01
H89 -6.127948957724E-02 -4.888131979740E-01  4.130237078265E-01
H90  6.127948957724E-02  4.888131979740E-01 -4.130237078265E-01
H91 -2.631683872041E-01 -3.464049371030E-01  4.120498588904E-01
H92  2.631683872041E-01  3.464049371030E-01 -4.120498588904E-01
H93 -7.928784340615E-02 -2.772614867865E-01  4.644276936484E-01
H94  7.928784340615E-02  2.772614867865E-01 -4.644276936484E-01
H95 -1.558780452062E-02 -1.625021412971E-02  2.692518456153E-01
H96  1.558780452062E-02  1.625021412971E-02 -2.692518456153E-01
H97 -1.037747507463E-01 -3.488901680431E-04  3.766270145120E-01
H98  1.037747507463E-01  3.488901680431E-04 -3.766270145120E-01
H99 -2.430211308278E-01 -8.474183068213E-02  3.039708711982E-01
H100  2.430211308278E-01  8.474183068213E-02 -3.039708711982E-01


#===END

data_OPT_STEP_49

_symmetry_space_group_name_H-M 'P 1'
_cell_length_a      7.20153585
_cell_length_b      7.55422091
_cell_length_c     16.16247620
_cell_angle_alpha   92.056117
_cell_angle_beta   82.244813
_cell_angle_gamma   86.967124

loop_
_atom_site_label
_atom_site_fract_x
_atom_site_fract_y
_atom_site_fract_z
SI1  2.465874253782E-01 -2.981594428754E-01  3.229481145945E-01
SI2 -2.465874253782E-01  2.981594428754E-01 -3.229481145945E-01
C3  4.516220257405E-01 -6.249215943325E-02  8.121091068439E-02
C4 -4.516220257405E-01  6.249215943325E-02 -8.121091068439E-02
C5  3.201122362016E-01  4.464997665326E-02  4.534159090332E-02
C6 -3.201122362016E-01 -4.464997665326E-02 -4.534159090332E-02
C7  1.406570490053E-01  8.996423809636E-02  8.795899242855E-02
C8 -1.406570490053E-01 -8.996423809636E-02 -8.795899242855E-02
C9  1.042168995749E-02  1.936815361277E-01  5.345888924643E-02
C10 -1.042168995749E-02 -1.936815361277E-01 -5.345888924643E-02
C11 -1.713372665686E-01  2.406705978012E-01  9.754906211421E-02
C12  1.713372665686E-01 -2.406705978012E-01 -9.754906211421E-02
C13 -2.980543208563E-01  3.403753566501E-01  6.167361064239E-02
C14  2.980543208563E-01 -3.403753566501E-01 -6.167361064239E-02
C15 -2.519309528115E-01  3.985265811717E-01 -2.079107128934E-02
C16  2.519309528115E-01 -3.985265811717E-01  2.079107128934E-02
C17 -8.069290005055E-02  3.565849307095E-01 -6.502123771041E-02
C18  8.069290005055E-02 -3.565849307095E-01  6.502123771041E-02
C19  5.730019373518E-02  2.533156227099E-01 -2.979995536415E-02
C20 -5.730019373518E-02 -2.533156227099E-01  2.979995536415E-02
C21  2.336919243661E-01  2.093518901560E-01 -7.271195635277E-02
C22 -2.336919243661E-01 -2.093518901560E-01  7.271195635277E-02
C23  3.683158018320E-01  1.073089282909E-01 -3.737251370599E-02
C24 -3.683158018320E-01 -1.073089282909E-01  3.737251370599E-02
C25  3.992546811804E-01 -1.307045451764E-01  1.605021499056E-01
C26 -3.992546811804E-01  1.307045451764E-01 -1.605021499056E-01
C27  3.474911020776E-01 -1.940079843506E-01  2.272498594854E-01
C28 -3.474911020776E-01  1.940079843506E-01 -2.272498594854E-01
C29  3.194460006678E-01  4.550102105454E-01  3.135578985095E-01
C30 -3.194460006678E-01 -4.550102105454E-01 -3.135578985095E-01
C31  2.259136831945E-01  3.580324972277E-01  2.473649428674E-01
C32 -2.259136831945E-01 -3.580324972277E-01 -2.473649428674E-01
C33 -4.676037688539E-01  4.233389795213E-01  2.963782294845E-01
C34  4.676037688539E-01 -4.233389795213E-01 -2.963782294845E-01
C35  3.495237398411E-01 -1.869813530771E-01  4.126007378698E-01
C36 -3.495237398411E-01  1.869813530771E-01 -4.126007378698E-01
C37  3.190474121895E-01 -2.841850960452E-01  4.938231415273E-01
C38 -3.190474121895E-01  2.841850960452E-01 -4.938231415273E-01
C39  2.843606284476E-01  8.392989236492E-03  4.258513591913E-01
C40 -2.843606284476E-01 -8.392989236492E-03 -4.258513591913E-01
C41 -1.937767676452E-02 -2.701973937918E-01  3.293369112747E-01
C42  1.937767676452E-02  2.701973937918E-01 -3.293369112747E-01
C43 -1.104185828829E-01 -3.503460371703E-01  4.089970916981E-01
C44  1.104185828829E-01  3.503460371703E-01 -4.089970916981E-01
C45 -9.957255545556E-02 -8.237615943503E-02  3.192127925647E-01
C46  9.957255545556E-02  8.237615943503E-02 -3.192127925647E-01
H47  1.033708377422E-01  3.936131178815E-02  1.494384968922E-01
H48 -1.033708377422E-01 -3.936131178815E-02 -1.494384968922E-01
H49 -2.071092490404E-01  1.921259929473E-01  1.596957514435E-01
H50  2.071092490404E-01 -1.921259929473E-01 -1.596957514435E-01
H51 -4.365999819288E-01  3.727288164240E-01  9.562557888653E-02
H52  4.365999819288E-01 -3.727288164240E-01 -9.562557888653E-02
H53 -3.555441279344E-01  4.775177321049E-01 -4.828586707921E-02
H54  3.555441279344E-01 -4.775177321049E-01  4.828586707921E-02
H55 -4.538184417099E-02  4.024646340565E-01 -1.276494358906E-01
H56  4.538184417099E-02 -4.024646340565E-01  1.276494358906E-01
H57  2.704587672682E-01  2.549959022994E-01 -1.353834055776E-01
H58 -2.704587672682E-01 -2.549959022994E-01  1.353834055776E-01
H59  2.704084624052E-01  4.023892484042E-01  3.747662142597E-01
H60 -2.704084624052E-01 -4.023892484042E-01 -3.747662142597E-01
H61  2.595011271718E-01  4.145976576185E-01  1.860744172303E-01
H62 -2.595011271718E-01 -4.145976576185E-01 -1.860744172303E-01
H63  7.283370697709E-02  3.632402072012E-01  2.622179284191E-01
H64 -7.283370697709E-02 -3.632402072012E-01 -2.622179284191E-01
H65  2.753744227492E-01  2.178409655103E-01  2.404557556745E-01
H66 -2.753744227492E-01 -2.178409655103E-01 -2.404557556745E-01
H67 -4.278931680575E-01  2.807215120569E-01  2.903054345755E-01
H68  4.278931680575E-01 -2.807215120569E-01 -2.903054345755E-01
H69 -3.980770812795E-01  4.794344502794E-01  3.464508183496E-01
H70  3.980770812795E-01 -4.794344502794E-01 -3.464508183496E-01
H71 -4.106146493772E-01  4.823089776669E-01  2.380781581218E-01
H72  4.106146493772E-01 -4.823089776669E-01 -2.380781581218E-01
H73 -4.991064649068E-01 -1.936796520258E-01  3.900518005215E-01
H74  4.991064649068E-01  1.936796520258E-01 -3.900518005215E-01
H75  3.988615922128E-01 -2.279617590814E-01 -4.594629154471E-01
H76 -3.988615922128E-01  2.279617590814E-01  4.594629154471E-01
H77  3.608745037286E-01 -4.255465098763E-01  4.847469190453E-01
H78 -3.608745037286E-01  4.255465098763E-01 -4.847469190453E-01
H79  1.713548072307E-01 -2.732731328945E-01 -4.786849516731E-01
H80 -1.713548072307E-01  2.732731328945E-01  4.786849516731E-01
H81  1.333987465626E-01  2.395023732525E-02  4.474427890326E-01
H82 -1.333987465626E-01 -2.395023732525E-02 -4.474427890326E-01
H83  3.116187775314E-01  8.002961379761E-02  3.682654304764E-01
H84 -3.116187775314E-01 -8.002961379761E-02 -3.682654304764E-01
H85  3.551892126972E-01  7.314311569096E-02  4.735210667301E-01
H86 -3.551892126972E-01 -7.314311569096E-02 -4.735210667301E-01
H87 -4.916403228817E-02 -3.525582068555E-01  2.757322331579E-01
H88  4.916403228817E-02  3.525582068555E-01 -2.757322331579E-01
H89 -6.176707260877E-02 -4.887965316562E-01  4.131641878732E-01
H90  6.176707260877E-02  4.887965316562E-01 -4.131641878732E-01
H91 -2.634049615228E-01 -3.458501905756E-01  4.124277104607E-01
H92  2.634049615228E-01  3.458501905756E-01 -4.124277104607E-01
H93 -7.931368789528E-02 -2.773531529899E-01  4.645972848013E-01
H94  7.931368789528E-02  2.773531529899E-01 -4.645972848013E-01
H95 -1.639891410000E-02 -1.624161610912E-02  2.690989237873E-01
H96  1.639891410000E-02  1.624161610912E-02 -2.690989237873E-01
H97 -1.038556690929E-01  1.096492629902E-04  3.765215350127E-01
H98  1.038556690929E-01 -1.096492629902E-04 -3.765215350127E-01
H99 -2.436096592242E-01 -8.451888689657E-02  3.042839575095E-01
H100  2.436096592242E-01  8.451888689657E-02 -3.042839575095E-01


#===END

data_OPT_STEP_50

_symmetry_space_group_name_H-M 'P 1'
_cell_length_a      7.20752009
_cell_length_b      7.55940030
_cell_length_c     16.13819195
_cell_angle_alpha   92.070470
_cell_angle_beta   82.248808
_cell_angle_gamma   86.882445

loop_
_atom_site_label
_atom_site_fract_x
_atom_site_fract_y
_atom_site_fract_z
SI1  2.470481574161E-01 -2.982826702584E-01  3.232956465455E-01
SI2 -2.470481574161E-01  2.982826702584E-01 -3.232956465455E-01
C3  4.517276202728E-01 -6.253279975831E-02  8.132905748097E-02
C4 -4.517276202728E-01  6.253279975831E-02 -8.132905748097E-02
C5  3.201206555368E-01  4.463995022394E-02  4.543087840535E-02
C6 -3.201206555368E-01 -4.463995022394E-02 -4.543087840535E-02
C7  1.406658988470E-01  8.990303962902E-02  8.809441593957E-02
C8 -1.406658988470E-01 -8.990303962902E-02 -8.809441593957E-02
C9  1.042426162433E-02  1.936225531010E-01  5.354639546315E-02
C10 -1.042426162433E-02 -1.936225531010E-01 -5.354639546315E-02
C11 -1.713476308759E-01  2.403597878938E-01  9.762817963478E-02
C12  1.713476308759E-01 -2.403597878938E-01 -9.762817963478E-02
C13 -2.980497660090E-01  3.401293453540E-01  6.174198176716E-02
C14  2.980497660090E-01 -3.401293453540E-01 -6.174198176716E-02
C15 -2.519255011627E-01  3.984926003809E-01 -2.078430651383E-02
C16  2.519255011627E-01 -3.984926003809E-01  2.078430651383E-02
C17 -8.070132004484E-02  3.566742925393E-01 -6.505921212404E-02
C18  8.070132004484E-02 -3.566742925393E-01  6.505921212404E-02
C19  5.729109263692E-02  2.534070595119E-01 -2.979089614423E-02
C20 -5.729109263692E-02 -2.534070595119E-01  2.979089614423E-02
C21  2.336182071882E-01  2.094323010426E-01 -7.277047688672E-02
C22 -2.336182071882E-01 -2.094323010426E-01  7.277047688672E-02
C23  3.682868017620E-01  1.074568029381E-01 -3.736766152035E-02
C24 -3.682868017620E-01 -1.074568029381E-01  3.736766152035E-02
C25  3.995093434928E-01 -1.308753863346E-01  1.606881650949E-01
C26 -3.995093434928E-01  1.308753863346E-01 -1.606881650949E-01
C27  3.476976058102E-01 -1.941382904768E-01  2.274831561695E-01
C28 -3.476976058102E-01  1.941382904768E-01 -2.274831561695E-01
C29  3.199299089271E-01  4.549299910381E-01  3.138452952189E-01
C30 -3.199299089271E-01 -4.549299910381E-01 -3.138452952189E-01
C31  2.259628869035E-01  3.579737111979E-01  2.477573629829E-01
C32 -2.259628869035E-01 -3.579737111979E-01 -2.477573629829E-01
C33 -4.673021886014E-01  4.230381045336E-01  2.963064865102E-01
C34  4.673021886014E-01 -4.230381045336E-01 -2.963064865102E-01
C35  3.500537917310E-01 -1.874120255024E-01  4.130657686092E-01
C36 -3.500537917310E-01  1.874120255024E-01 -4.130657686092E-01
C37  3.196129719979E-01 -2.843991285652E-01  4.944492230237E-01
C38 -3.196129719979E-01  2.843991285652E-01 -4.944492230237E-01
C39  2.852849072895E-01  7.895214086930E-03  4.263199326152E-01
C40 -2.852849072895E-01 -7.895214086930E-03 -4.263199326152E-01
C41 -1.870159338506E-02 -2.699484915852E-01  3.298049849965E-01
C42  1.870159338506E-02  2.699484915852E-01 -3.298049849965E-01
C43 -1.094380343872E-01 -3.497470333936E-01  4.096655956988E-01
C44  1.094380343872E-01  3.497470333936E-01 -4.096655956988E-01
C45 -9.887028855633E-02 -8.213160701664E-02  3.196088254594E-01
C46  9.887028855633E-02  8.213160701664E-02 -3.196088254594E-01
H47  1.033580739446E-01  3.903280403989E-02  1.495577006966E-01
H48 -1.033580739446E-01 -3.903280403989E-02 -1.495577006966E-01
H49 -2.070967414645E-01  1.917680522412E-01  1.598573149486E-01
H50  2.070967414645E-01 -1.917680522412E-01 -1.598573149486E-01
H51 -4.365958363887E-01  3.723102410537E-01  9.571640810834E-02
H52  4.365958363887E-01 -3.723102410537E-01 -9.571640810834E-02
H53 -3.555285943000E-01  4.774658196612E-01 -4.831177116700E-02
H54  3.555285943000E-01 -4.774658196612E-01  4.831177116700E-02
H55 -4.534267516593E-02  4.028257846155E-01 -1.276957487204E-01
H56  4.534267516593E-02 -4.028257846155E-01  1.276957487204E-01
H57  2.704168718295E-01  2.553787688768E-01 -1.354331301852E-01
H58 -2.704168718295E-01 -2.553787688768E-01  1.354331301852E-01
H59  2.714022309278E-01  4.024926165179E-01  3.752199786729E-01
H60 -2.714022309278E-01 -4.024926165179E-01 -3.752199786729E-01
H61  2.589871754827E-01  4.144459778096E-01  1.863364583206E-01
H62 -2.589871754827E-01 -4.144459778096E-01 -1.863364583206E-01
H63  7.302986657596E-02  3.633005862285E-01  2.628897364639E-01
H64 -7.302986657596E-02 -3.633005862285E-01 -2.628897364639E-01
H65  2.754577667071E-01  2.178047078546E-01  2.407733505139E-01
H66 -2.754577667071E-01 -2.178047078546E-01 -2.407733505139E-01
H67 -4.275859429542E-01  2.804831873202E-01  2.903077262936E-01
H68  4.275859429542E-01 -2.804831873202E-01 -2.903077262936E-01
H69 -3.974084971328E-01  4.792460135186E-01  3.462535778044E-01
H70  3.974084971328E-01 -4.792460135186E-01 -3.462535778044E-01
H71 -4.108329224478E-01  4.816359377823E-01  2.377802256796E-01
H72  4.108329224478E-01 -4.816359377823E-01 -2.377802256796E-01
H73 -4.987127725895E-01 -1.944616011141E-01  3.905297596015E-01
H74  4.987127725895E-01  1.944616011141E-01 -3.905297596015E-01
H75  3.995046974009E-01 -2.282218589217E-01 -4.588481411820E-01
H76 -3.995046974009E-01  2.282218589217E-01  4.588481411820E-01
H77  3.613283115020E-01 -4.258154242145E-01  4.854110353755E-01
H78 -3.613283115020E-01  4.258154242145E-01 -4.854110353755E-01
H79  1.720437875438E-01 -2.731543547852E-01 -4.779345344928E-01
H80 -1.720437875438E-01  2.731543547852E-01  4.779345344928E-01
H81  1.342736341404E-01  2.371861458741E-02  4.476134423150E-01
H82 -1.342736341404E-01 -2.371861458741E-02 -4.476134423150E-01
H83  3.134754602855E-01  7.959255130799E-02  3.686839733076E-01
H84 -3.134754602855E-01 -7.959255130799E-02 -3.686839733076E-01
H85  3.554514423146E-01  7.232617994575E-02  4.744312847398E-01
H86 -3.554514423146E-01 -7.232617994575E-02 -4.744312847398E-01
H87 -4.869908612911E-02 -3.523445427777E-01  2.761958754149E-01
H88  4.869908612911E-02  3.523445427777E-01 -2.761958754149E-01
H89 -6.099982242077E-02 -4.882723492003E-01  4.138494973518E-01
H90  6.099982242077E-02  4.882723492003E-01 -4.138494973518E-01
H91 -2.623010974182E-01 -3.447711665420E-01  4.132168320520E-01
H92  2.623010974182E-01  3.447711665420E-01 -4.132168320520E-01
H93 -7.802925350205E-02 -2.768252931199E-01  4.652982834806E-01
H94  7.802925350205E-02  2.768252931199E-01 -4.652982834806E-01
H95 -1.619773002806E-02 -1.643470443144E-02  2.692020231179E-01
H96  1.619773002806E-02  1.643470443144E-02 -2.692020231179E-01
H97 -1.024909098802E-01  5.608018167527E-04  3.768732258664E-01
H98  1.024909098802E-01 -5.608018167527E-04 -3.768732258664E-01
H99 -2.430833203585E-01 -8.404613488167E-02  3.049817055471E-01
H100  2.430833203585E-01  8.404613488167E-02 -3.049817055471E-01


#===END

data_OPT_STEP_51

_symmetry_space_group_name_H-M 'P 1'
_cell_length_a      7.20989043
_cell_length_b      7.56046559
_cell_length_c     16.12485817
_cell_angle_alpha   92.096628
_cell_angle_beta   82.286595
_cell_angle_gamma   86.892889

loop_
_atom_site_label
_atom_site_fract_x
_atom_site_fract_y
_atom_site_fract_z
SI1  2.477993304660E-01 -2.985671247102E-01  3.234422644156E-01
SI2 -2.477993304660E-01  2.985671247102E-01 -3.234422644156E-01
C3  4.518573625685E-01 -6.256074463948E-02  8.138406156412E-02
C4 -4.518573625685E-01  6.256074463948E-02 -8.138406156412E-02
C5  3.202476044474E-01  4.458186480176E-02  4.546862627946E-02
C6 -3.202476044474E-01 -4.458186480176E-02 -4.546862627946E-02
C7  1.408804311839E-01  8.969557128644E-02  8.813420873510E-02
C8 -1.408804311839E-01 -8.969557128644E-02 -8.813420873510E-02
C9  1.065059510584E-02  1.934355123130E-01  5.359098065671E-02
C10 -1.065059510584E-02 -1.934355123130E-01 -5.359098065671E-02
C11 -1.710260825702E-01  2.400031425278E-01  9.768308093143E-02
C12  1.710260825702E-01 -2.400031425278E-01 -9.768308093143E-02
C13 -2.976834266181E-01  3.397863161818E-01  6.177872331742E-02
C14  2.976834266181E-01 -3.397863161818E-01 -6.177872331742E-02
C15 -2.516333812907E-01  3.984234461085E-01 -2.074125088274E-02
C16  2.516333812907E-01 -3.984234461085E-01  2.074125088274E-02
C17 -8.055531640705E-02  3.566739068176E-01 -6.505357450686E-02
C18  8.055531640705E-02 -3.566739068176E-01  6.505357450686E-02
C19  5.741105775938E-02  2.533383380414E-01 -2.978132004367E-02
C20 -5.741105775938E-02 -2.533383380414E-01  2.978132004367E-02
C21  2.336522065102E-01  2.095411967989E-01 -7.276495423744E-02
C22 -2.336522065102E-01 -2.095411967989E-01  7.276495423744E-02
C23  3.683104685049E-01  1.075221729581E-01 -3.735930377444E-02
C24 -3.683104685049E-01 -1.075221729581E-01  3.735930377444E-02
C25  3.998062334935E-01 -1.309393152781E-01  1.607785529932E-01
C26 -3.998062334935E-01  1.309393152781E-01 -1.607785529932E-01
C27  3.481841833016E-01 -1.942627531690E-01  2.275987343662E-01
C28 -3.481841833016E-01  1.942627531690E-01 -2.275987343662E-01
C29  3.212987929871E-01  4.547426070830E-01  3.139883270030E-01
C30 -3.212987929871E-01 -4.547426070830E-01 -3.139883270030E-01
C31  2.270830408089E-01  3.571455724431E-01  2.480467544038E-01
C32 -2.270830408089E-01 -3.571455724431E-01 -2.480467544038E-01
C33 -4.659739057421E-01  4.234854985407E-01  2.961816749715E-01
C34  4.659739057421E-01 -4.234854985407E-01 -2.961816749715E-01
C35  3.502636366903E-01 -1.871837922458E-01  4.133919112702E-01
C36 -3.502636366903E-01  1.871837922458E-01 -4.133919112702E-01
C37  3.201431936040E-01 -2.840835273779E-01  4.948245074781E-01
C38 -3.201431936040E-01  2.840835273779E-01 -4.948245074781E-01
C39  2.843015225918E-01  7.854374689227E-03  4.266918280806E-01
C40 -2.843015225918E-01 -7.854374689227E-03 -4.266918280806E-01
C41 -1.793432187428E-02 -2.708075090810E-01  3.297673545014E-01
C42  1.793432187428E-02  2.708075090810E-01 -3.297673545014E-01
C43 -1.086498659226E-01 -3.505285594215E-01  4.096674078990E-01
C44  1.086498659226E-01  3.505285594215E-01 -4.096674078990E-01
C45 -9.858057322314E-02 -8.328335817199E-02  3.194169848849E-01
C46  9.858057322314E-02  8.328335817199E-02 -3.194169848849E-01
H47  1.036940527838E-01  3.890300055599E-02  1.496806650527E-01
H48 -1.036940527838E-01 -3.890300055599E-02 -1.496806650527E-01
H49 -2.067278741591E-01  1.912132538640E-01  1.599048681856E-01
H50  2.067278741591E-01 -1.912132538640E-01 -1.599048681856E-01
H51 -4.361362151069E-01  3.720380791116E-01  9.578456040328E-02
H52  4.361362151069E-01 -3.720380791116E-01 -9.578456040328E-02
H53 -3.552423481102E-01  4.775437417138E-01 -4.820422467518E-02
H54  3.552423481102E-01 -4.775437417138E-01  4.820422467518E-02
H55 -4.518329898383E-02  4.031101105807E-01 -1.276643647420E-01
H56  4.518329898383E-02 -4.031101105807E-01  1.276643647420E-01
H57  2.703363461422E-01  2.554712387611E-01 -1.354888777089E-01
H58 -2.703363461422E-01 -2.554712387611E-01  1.354888777089E-01
H59  2.734919822621E-01  4.023723636142E-01  3.754873496641E-01
H60 -2.734919822621E-01 -4.023723636142E-01 -3.754873496641E-01
H61  2.589491440091E-01  4.137444492551E-01  1.865766022686E-01
H62 -2.589491440091E-01 -4.137444492551E-01 -1.865766022686E-01
H63  7.433395206957E-02  3.615641915216E-01  2.634496022016E-01
H64 -7.433395206957E-02 -3.615641915216E-01 -2.634496022016E-01
H65  2.773654116816E-01  2.172417527240E-01  2.409608114712E-01
H66 -2.773654116816E-01 -2.172417527240E-01 -2.409608114712E-01
H67 -4.257961282301E-01  2.810137107227E-01  2.903466044569E-01
H68  4.257961282301E-01 -2.810137107227E-01 -2.903466044569E-01
H69 -3.958107582340E-01  4.804092805521E-01  3.459547986448E-01
H70  3.958107582340E-01 -4.804092805521E-01 -3.459547986448E-01
H71 -4.102591197535E-01  4.818328674777E-01  2.374550425460E-01
H72  4.102591197535E-01 -4.818328674777E-01 -2.374550425460E-01
H73 -4.984666075467E-01 -1.935648266615E-01  3.909623903370E-01
H74  4.984666075467E-01  1.935648266615E-01 -3.909623903370E-01
H75  3.999571680261E-01 -2.277221032592E-01 -4.584403983537E-01
H76 -3.999571680261E-01  2.277221032592E-01  4.584403983537E-01
H77  3.620494168395E-01 -4.253316092689E-01  4.858246231816E-01
H78 -3.620494168395E-01  4.253316092689E-01 -4.858246231816E-01
H79  1.727015968700E-01 -2.729970067623E-01 -4.775789641564E-01
H80 -1.727015968700E-01  2.729970067623E-01  4.775789641564E-01
H81  1.332300106571E-01  2.277264076424E-02  4.479030215770E-01
H82 -1.332300106571E-01 -2.277264076424E-02 -4.479030215770E-01
H83  3.119606507120E-01  7.962793510682E-02  3.690766348058E-01
H84 -3.119606507120E-01 -7.962793510682E-02 -3.690766348058E-01
H85  3.539643740088E-01  7.275231253596E-02  4.748946768714E-01
H86 -3.539643740088E-01 -7.275231253596E-02 -4.748946768714E-01
H87 -4.758945554966E-02 -3.534794687038E-01  2.761137882733E-01
H88  4.758945554966E-02  3.534794687038E-01 -2.761137882733E-01
H89 -5.993442862441E-02 -4.890092782794E-01  4.139122787004E-01
H90  5.993442862441E-02  4.890092782794E-01 -4.139122787004E-01
H91 -2.614841531033E-01 -3.457932525743E-01  4.130816332624E-01
H92  2.614841531033E-01  3.457932525743E-01 -4.130816332624E-01
H93 -7.752599070849E-02 -2.773188661120E-01  4.653903473009E-01
H94  7.752599070849E-02  2.773188661120E-01 -4.653903473009E-01
H95 -1.603877035529E-02 -1.757692013484E-02  2.689818155012E-01
H96  1.603877035529E-02  1.757692013484E-02 -2.689818155012E-01
H97 -1.025591506864E-01 -3.424712263166E-04  3.766932447732E-01
H98  1.025591506864E-01  3.424712263166E-04 -3.766932447732E-01
H99 -2.426491520062E-01 -8.570992800791E-02  3.046470062688E-01
H100  2.426491520062E-01  8.570992800791E-02 -3.046470062688E-01


#===END

data_OPT_STEP_52

_symmetry_space_group_name_H-M 'P 1'
_cell_length_a      7.21065754
_cell_length_b      7.56344250
_cell_length_c     16.12143090
_cell_angle_alpha   92.099380
_cell_angle_beta   82.278634
_cell_angle_gamma   86.918761

loop_
_atom_site_label
_atom_site_fract_x
_atom_site_fract_y
_atom_site_fract_z
SI1  2.473547590235E-01 -2.986017055284E-01  3.234906582006E-01
SI2 -2.473547590235E-01  2.986017055284E-01 -3.234906582006E-01
C3  4.516432481298E-01 -6.267465482784E-02  8.134670757831E-02
C4 -4.516432481298E-01  6.267465482784E-02 -8.134670757831E-02
C5  3.202742192142E-01  4.453455099087E-02  4.543132558532E-02
C6 -3.202742192142E-01 -4.453455099087E-02 -4.543132558532E-02
C7  1.408941100255E-01  8.951012138823E-02  8.807101604316E-02
C8 -1.408941100255E-01 -8.951012138823E-02 -8.807101604316E-02
C9  1.077522793914E-02  1.932436152137E-01  5.353218039888E-02
C10 -1.077522793914E-02 -1.932436152137E-01 -5.353218039888E-02
C11 -1.709833817774E-01  2.396288868367E-01  9.761966069560E-02
C12  1.709833817774E-01 -2.396288868367E-01 -9.761966069560E-02
C13 -2.975224746538E-01  3.393868228872E-01  6.169356799606E-02
C14  2.975224746538E-01 -3.393868228872E-01 -6.169356799606E-02
C15 -2.512528619001E-01  3.982875407758E-01 -2.080240367433E-02
C16  2.512528619001E-01 -3.982875407758E-01  2.080240367433E-02
C17 -8.009278474593E-02  3.568704391761E-01 -6.504417474316E-02
C18  8.009278474593E-02 -3.568704391761E-01  6.504417474316E-02
C19  5.771541563750E-02  2.533485877216E-01 -2.981253388440E-02
C20 -5.771541563750E-02 -2.533485877216E-01  2.981253388440E-02
C21  2.340230991850E-01  2.097256120659E-01 -7.276298938536E-02
C22 -2.340230991850E-01 -2.097256120659E-01  7.276298938536E-02
C23  3.684960312800E-01  1.075298703067E-01 -3.738728433067E-02
C24 -3.684960312800E-01 -1.075298703067E-01  3.738728433067E-02
C25  3.993643771988E-01 -1.309373168028E-01  1.607705715129E-01
C26 -3.993643771988E-01  1.309373168028E-01 -1.607705715129E-01
C27  3.474802403401E-01 -1.943398997628E-01  2.275729907534E-01
C28 -3.474802403401E-01  1.943398997628E-01 -2.275729907534E-01
C29  3.208613168354E-01  4.549733070578E-01  3.139898840790E-01
C30 -3.208613168354E-01 -4.549733070578E-01 -3.139898840790E-01
C31  2.264096004837E-01  3.573614150947E-01  2.481658606212E-01
C32 -2.264096004837E-01 -3.573614150947E-01 -2.481658606212E-01
C33 -4.664342167405E-01  4.240288173619E-01  2.959920190561E-01
C34  4.664342167405E-01 -4.240288173619E-01 -2.959920190561E-01
C35  3.499406072120E-01 -1.870526507803E-01  4.134087340453E-01
C36 -3.499406072120E-01  1.870526507803E-01 -4.134087340453E-01
C37  3.206700580042E-01 -2.839385756493E-01  4.948475091241E-01
C38 -3.206700580042E-01  2.839385756493E-01 -4.948475091241E-01
C39  2.829206188339E-01  7.674858538283E-03  4.269219220869E-01
C40 -2.829206188339E-01 -7.674858538283E-03 -4.269219220869E-01
C41 -1.832930423005E-02 -2.710842067786E-01  3.299143724211E-01
C42  1.832930423005E-02  2.710842067786E-01 -3.299143724211E-01
C43 -1.086972480878E-01 -3.509109403496E-01  4.098900809127E-01
C44  1.086972480878E-01  3.509109403496E-01 -4.098900809127E-01
C45 -9.908512701515E-02 -8.376425935139E-02  3.195283530129E-01
C46  9.908512701515E-02  8.376425935139E-02 -3.195283530129E-01
H47  1.036012159666E-01  3.863314306710E-02  1.496118783272E-01
H48 -1.036012159666E-01 -3.863314306710E-02 -1.496118783272E-01
H49 -2.068913112976E-01  1.904923464063E-01  1.597631979285E-01
H50  2.068913112976E-01 -1.904923464063E-01 -1.597631979285E-01
H51 -4.361034967771E-01  3.713216682258E-01  9.556751383811E-02
H52  4.361034967771E-01 -3.713216682258E-01 -9.556751383811E-02
H53 -3.548640218248E-01  4.775552290762E-01 -4.814218165035E-02
H54  3.548640218248E-01 -4.775552290762E-01  4.814218165035E-02
H55 -4.449339032292E-02  4.034998953554E-01 -1.276438027672E-01
H56  4.449339032292E-02 -4.034998953554E-01  1.276438027672E-01
H57  2.708413887422E-01  2.557184536389E-01 -1.354928588653E-01
H58 -2.708413887422E-01 -2.557184536389E-01  1.354928588653E-01
H59  2.733089482081E-01  4.027010373536E-01  3.755485252259E-01
H60 -2.733089482081E-01 -4.027010373536E-01 -3.755485252259E-01
H61  2.584042880746E-01  4.135832339432E-01  1.865765333648E-01
H62 -2.584042880746E-01 -4.135832339432E-01 -1.865765333648E-01
H63  7.366242020315E-02  3.621703584905E-01  2.636732884126E-01
H64 -7.366242020315E-02 -3.621703584905E-01 -2.636732884126E-01
H65  2.763121784750E-01  2.174511571690E-01  2.411967005358E-01
H66 -2.763121784750E-01 -2.174511571690E-01 -2.411967005358E-01
H67 -4.260303351846E-01  2.818080981518E-01  2.900640903451E-01
H68  4.260303351846E-01 -2.818080981518E-01 -2.900640903451E-01
H69 -3.961412610818E-01  4.809093593142E-01  3.456868423661E-01
H70  3.961412610818E-01 -4.809093593142E-01 -3.456868423661E-01
H71 -4.110810911636E-01  4.825032640585E-01  2.372763215528E-01
H72  4.110810911636E-01 -4.825032640585E-01 -2.372763215528E-01
H73 -4.989117036964E-01 -1.928119307491E-01  3.907835327818E-01
H74  4.989117036964E-01  1.928119307491E-01 -3.907835327818E-01
H75  4.004450486569E-01 -2.270179417175E-01 -4.585005552763E-01
H76 -4.004450486569E-01  2.270179417175E-01  4.585005552763E-01
H77  3.631530858938E-01 -4.250306145957E-01  4.858772361086E-01
H78 -3.631530858938E-01  4.250306145957E-01 -4.858772361086E-01
H79  1.733046976118E-01 -2.733455581694E-01 -4.774305179538E-01
H80 -1.733046976118E-01  2.733455581694E-01  4.774305179538E-01
H81  1.321033406791E-01  2.162729430960E-02  4.485251569324E-01
H82 -1.321033406791E-01 -2.162729430960E-02 -4.485251569324E-01
H83  3.090684975278E-01  7.965810532617E-02  3.693465009105E-01
H84 -3.090684975278E-01 -7.965810532617E-02 -3.693465009105E-01
H85  3.528511038416E-01  7.290670192888E-02  4.748703889939E-01
H86 -3.528511038416E-01 -7.290670192888E-02 -4.748703889939E-01
H87 -4.803229771963E-02 -3.538306529613E-01  2.762911653809E-01
H88  4.803229771963E-02  3.538306529613E-01 -2.762911653809E-01
H89 -6.047391249141E-02 -4.894604001827E-01  4.138341080361E-01
H90  6.047391249141E-02  4.894604001827E-01 -4.138341080361E-01
H91 -2.615394164033E-01 -3.457316721385E-01  4.136399673032E-01
H92  2.615394164033E-01  3.457316721385E-01 -4.136399673032E-01
H93 -7.667368546225E-02 -2.783934766499E-01  4.655902803424E-01
H94  7.667368546225E-02  2.783934766499E-01 -4.655902803424E-01
H95 -1.677795912151E-02 -1.819902067409E-02  2.689610375213E-01
H96  1.677795912151E-02  1.819902067409E-02 -2.689610375213E-01
H97 -1.028729556401E-01 -6.927456788005E-04  3.767484313510E-01
H98  1.028729556401E-01  6.927456788005E-04 -3.767484313510E-01
H99 -2.431665530302E-01 -8.635551996572E-02  3.048622659630E-01
H100  2.431665530302E-01  8.635551996572E-02 -3.048622659630E-01


#===END

data_OPT_STEP_53

_symmetry_space_group_name_H-M 'P 1'
_cell_length_a      7.21235958
_cell_length_b      7.56800295
_cell_length_c     16.09962425
_cell_angle_alpha   92.119405
_cell_angle_beta   82.365901
_cell_angle_gamma   86.896091

loop_
_atom_site_label
_atom_site_fract_x
_atom_site_fract_y
_atom_site_fract_z
SI1  2.481885827875E-01 -2.987754624182E-01  3.236589514779E-01
SI2 -2.481885827875E-01  2.987754624182E-01 -3.236589514779E-01
C3  4.518632356906E-01 -6.279008488087E-02  8.137388268864E-02
C4 -4.518632356906E-01  6.279008488087E-02 -8.137388268864E-02
C5  3.204368289076E-01  4.445403567189E-02  4.544524169407E-02
C6 -3.204368289076E-01 -4.445403567189E-02 -4.544524169407E-02
C7  1.411917765698E-01  8.939211139256E-02  8.812583260419E-02
C8 -1.411917765698E-01 -8.939211139256E-02 -8.812583260419E-02
C9  1.097668140402E-02  1.931167699970E-01  5.357169650200E-02
C10 -1.097668140402E-02 -1.931167699970E-01 -5.357169650200E-02
C11 -1.706754437755E-01  2.394079139465E-01  9.769865686357E-02
C12  1.706754437755E-01 -2.394079139465E-01 -9.769865686357E-02
C13 -2.972984673492E-01  3.392157965847E-01  6.176851432288E-02
C14  2.972984673492E-01 -3.392157965847E-01 -6.176851432288E-02
C15 -2.511987798684E-01  3.982511615130E-01 -2.077062661807E-02
C16  2.511987798684E-01 -3.982511615130E-01  2.077062661807E-02
C17 -8.016465896824E-02  3.568885555478E-01 -6.505644502519E-02
C18  8.016465896824E-02 -3.568885555478E-01  6.505644502519E-02
C19  5.771013402358E-02  2.533653395049E-01 -2.980224406723E-02
C20 -5.771013402358E-02 -2.533653395049E-01  2.980224406723E-02
C21  2.338836919757E-01  2.097930242266E-01 -7.278745605817E-02
C22 -2.338836919757E-01 -2.097930242266E-01  7.278745605817E-02
C23  3.684162807774E-01  1.075483294665E-01 -3.740863295111E-02
C24 -3.684162807774E-01 -1.075483294665E-01  3.740863295111E-02
C25  3.997484956802E-01 -1.311322718858E-01  1.608341360894E-01
C26 -3.997484956802E-01  1.311322718858E-01 -1.608341360894E-01
C27  3.480296323741E-01 -1.946629893377E-01  2.276515054395E-01
C28 -3.480296323741E-01  1.946629893377E-01 -2.276515054395E-01
C29  3.219445638485E-01  4.549574380482E-01  3.142185006398E-01
C30 -3.219445638485E-01 -4.549574380482E-01 -3.142185006398E-01
C31  2.278259239285E-01  3.570911055452E-01  2.482456804869E-01
C32 -2.278259239285E-01 -3.570911055452E-01 -2.482456804869E-01
C33 -4.654417088759E-01  4.242705694779E-01  2.964102695648E-01
C34  4.654417088759E-01 -4.242705694779E-01 -2.964102695648E-01
C35  3.507380424103E-01 -1.871958024710E-01  4.137180816078E-01
C36 -3.507380424103E-01  1.871958024710E-01 -4.137180816078E-01
C37  3.216083516850E-01 -2.840353786140E-01  4.952695784042E-01
C38 -3.216083516850E-01  2.840353786140E-01 -4.952695784042E-01
C39  2.836116831048E-01  7.323618985927E-03  4.272260653446E-01
C40 -2.836116831048E-01 -7.323618985927E-03 -4.272260653446E-01
C41 -1.742890666380E-02 -2.714737960679E-01  3.300115756024E-01
C42  1.742890666380E-02  2.714737960679E-01 -3.300115756024E-01
C43 -1.075018667956E-01 -3.507083859545E-01  4.102267363200E-01
C44  1.075018667956E-01  3.507083859545E-01 -4.102267363200E-01
C45 -9.850912710893E-02 -8.445046963184E-02  3.192262067514E-01
C46  9.850912710893E-02  8.445046963184E-02 -3.192262067514E-01
H47  1.040647413764E-01  3.839698393747E-02  1.496706796347E-01
H48 -1.040647413764E-01 -3.839698393747E-02 -1.496706796347E-01
H49 -2.064235909220E-01  1.901941948354E-01  1.598800553733E-01
H50  2.064235909220E-01 -1.901941948354E-01 -1.598800553733E-01
H51 -4.358409704164E-01  3.710631461237E-01  9.561741892373E-02
H52  4.358409704164E-01 -3.710631461237E-01 -9.561741892373E-02
H53 -3.549611532277E-01  4.774204806557E-01 -4.811907754980E-02
H54  3.549611532277E-01 -4.774204806557E-01  4.811907754980E-02
H55 -4.468213047072E-02  4.035984087814E-01 -1.276932395022E-01
H56  4.468213047072E-02 -4.035984087814E-01  1.276932395022E-01
H57  2.705594909545E-01  2.558948750350E-01 -1.355433243546E-01
H58 -2.705594909545E-01 -2.558948750350E-01  1.355433243546E-01
H59  2.744969793061E-01  4.028580373964E-01  3.758392678600E-01
H60 -2.744969793061E-01 -4.028580373964E-01 -3.758392678600E-01
H61  2.596527199466E-01  4.131459332906E-01  1.866085820198E-01
H62 -2.596527199466E-01 -4.131459332906E-01 -1.866085820198E-01
H63  7.519126440012E-02  3.616972021767E-01  2.636355328088E-01
H64 -7.519126440012E-02 -3.616972021767E-01 -2.636355328088E-01
H65  2.780488923223E-01  2.173405502772E-01  2.413217730792E-01
H66 -2.780488923223E-01 -2.173405502772E-01 -2.413217730792E-01
H67 -4.247729436206E-01  2.819845138950E-01  2.909744460830E-01
H68  4.247729436206E-01 -2.819845138950E-01 -2.909744460830E-01
H69 -3.953589024562E-01  4.822357377107E-01  3.460834555112E-01
H70  3.953589024562E-01 -4.822357377107E-01 -3.460834555112E-01
H71 -4.102105933792E-01  4.819286595100E-01  2.374147060804E-01
H72  4.102105933792E-01 -4.819286595100E-01 -2.374147060804E-01
H73 -4.982405712253E-01 -1.928760008643E-01  3.911189102844E-01
H74  4.982405712253E-01  1.928760008643E-01 -3.911189102844E-01
H75  4.016709334840E-01 -2.275409066762E-01 -4.580345987711E-01
H76 -4.016709334840E-01  2.275409066762E-01  4.580345987711E-01
H77  3.636600103244E-01 -4.250744275983E-01  4.862811337071E-01
H78 -3.636600103244E-01  4.250744275983E-01 -4.862811337071E-01
H79  1.745032903292E-01 -2.730594544616E-01 -4.769323293843E-01
H80 -1.745032903292E-01  2.730594544616E-01  4.769323293843E-01
H81  1.328937633377E-01  2.106077973542E-02  4.487272272824E-01
H82 -1.328937633377E-01 -2.106077973542E-02 -4.487272272824E-01
H83  3.097792720015E-01  7.932530611179E-02  3.695735201289E-01
H84 -3.097792720015E-01 -7.932530611179E-02 -3.695735201289E-01
H85  3.533073959683E-01  7.250612157348E-02  4.753749628206E-01
H86 -3.533073959683E-01 -7.250612157348E-02 -4.753749628206E-01
H87 -4.707598634552E-02 -3.547852275192E-01  2.764421848441E-01
H88  4.707598634552E-02  3.547852275192E-01 -2.764421848441E-01
H89 -5.937271688575E-02 -4.891465940892E-01  4.143488819891E-01
H90  5.937271688575E-02  4.891465940892E-01 -4.143488819891E-01
H91 -2.602716262780E-01 -3.454846233375E-01  4.139937676881E-01
H92  2.602716262780E-01  3.454846233375E-01 -4.139937676881E-01
H93 -7.524769254631E-02 -2.779132348118E-01  4.658929954578E-01
H94  7.524769254631E-02  2.779132348118E-01 -4.658929954578E-01
H95 -1.659336986407E-02 -1.939462405833E-02  2.684026242186E-01
H96  1.659336986407E-02  1.939462405833E-02 -2.684026242186E-01
H97 -1.021249169083E-01 -7.459332823765E-04  3.763213988016E-01
H98  1.021249169083E-01  7.459332823766E-04 -3.763213988016E-01
H99 -2.426217143922E-01 -8.741278760320E-02  3.046024697374E-01
H100  2.426217143922E-01  8.741278760320E-02 -3.046024697374E-01


#===END

data_OPT_STEP_54

_symmetry_space_group_name_H-M 'P 1'
_cell_length_a      7.21247917
_cell_length_b      7.57358178
_cell_length_c     16.07517244
_cell_angle_alpha   92.159764
_cell_angle_beta   82.459278
_cell_angle_gamma   86.896353

loop_
_atom_site_label
_atom_site_fract_x
_atom_site_fract_y
_atom_site_fract_z
SI1  2.490288240301E-01 -2.990969571554E-01  3.238091259318E-01
SI2 -2.490288240301E-01  2.990969571554E-01 -3.238091259318E-01
C3  4.520881349778E-01 -6.287113766945E-02  8.143238293131E-02
C4 -4.520881349778E-01  6.287113766945E-02 -8.143238293131E-02
C5  3.205622493608E-01  4.443612786882E-02  4.550663539401E-02
C6 -3.205622493608E-01 -4.443612786882E-02 -4.550663539401E-02
C7  1.414366663330E-01  8.938163865724E-02  8.823625929863E-02
C8 -1.414366663330E-01 -8.938163865724E-02 -8.823625929863E-02
C9  1.115106238570E-02  1.931364901226E-01  5.367257842914E-02
C10 -1.115106238570E-02 -1.931364901226E-01 -5.367257842914E-02
C11 -1.703627767446E-01  2.394325333298E-01  9.785943060559E-02
C12  1.703627767446E-01 -2.394325333298E-01 -9.785943060559E-02
C13 -2.970953783316E-01  3.391829562351E-01  6.190196002095E-02
C14  2.970953783316E-01 -3.391829562351E-01 -6.190196002095E-02
C15 -2.512222184986E-01  3.981724965051E-01 -2.073103773922E-02
C16  2.512222184986E-01 -3.981724965051E-01  2.073103773922E-02
C17 -8.031712801308E-02  3.567790917961E-01 -6.509310568319E-02
C18  8.031712801308E-02 -3.567790917961E-01  6.509310568319E-02
C19  5.765892641813E-02  2.533695475687E-01 -2.978643881206E-02
C20 -5.765892641813E-02 -2.533695475687E-01  2.978643881206E-02
C21  2.336787256072E-01  2.097675300170E-01 -7.282439315896E-02
C22 -2.336787256072E-01 -2.097675300170E-01  7.282439315896E-02
C23  3.683027596219E-01  1.075510738748E-01 -3.742520082487E-02
C24 -3.683027596219E-01 -1.075510738748E-01  3.742520082487E-02
C25  4.001778033278E-01 -1.314092572521E-01  1.609072776005E-01
C26 -4.001778033278E-01  1.314092572521E-01 -1.609072776005E-01
C27  3.486775931938E-01 -1.950806960794E-01  2.277299570902E-01
C28 -3.486775931938E-01  1.950806960794E-01 -2.277299570902E-01
C29  3.229722559200E-01  4.547783448005E-01  3.143978312205E-01
C30 -3.229722559200E-01 -4.547783448005E-01 -3.143978312205E-01
C31  2.285285720064E-01  3.565352081958E-01  2.484661931555E-01
C32 -2.285285720064E-01 -3.565352081958E-01 -2.484661931555E-01
C33 -4.644653903890E-01  4.242682657427E-01  2.964551344186E-01
C34  4.644653903890E-01 -4.242682657427E-01 -2.964551344186E-01
C35  3.514334827029E-01 -1.872951938019E-01  4.140402092308E-01
C36 -3.514334827029E-01  1.872951938019E-01 -4.140402092308E-01
C37  3.223158810403E-01 -2.839799150791E-01  4.956912868408E-01
C38 -3.223158810403E-01  2.839799150791E-01 -4.956912868408E-01
C39  2.838771835925E-01  6.930906584329E-03  4.275074961503E-01
C40 -2.838771835925E-01 -6.930906584329E-03 -4.275074961503E-01
C41 -1.653876382677E-02 -2.719414488268E-01  3.301280635131E-01
C42  1.653876382677E-02  2.719414488268E-01 -3.301280635131E-01
C43 -1.063964206987E-01 -3.506128075510E-01  4.105208212754E-01
C44  1.063964206987E-01  3.506128075510E-01 -4.105208212754E-01
C45 -9.770806659203E-02 -8.528926095677E-02  3.191575380697E-01
C46  9.770806659203E-02  8.528926095677E-02 -3.191575380697E-01
H47  1.044904748426E-01  3.845256632074E-02  1.498483830142E-01
H48 -1.044904748426E-01 -3.845256632074E-02 -1.498483830142E-01
H49 -2.059072923546E-01  1.903130093605E-01  1.601281828579E-01
H50  2.059072923546E-01 -1.903130093605E-01 -1.601281828579E-01
H51 -4.355377839417E-01  3.711726805559E-01  9.585353065250E-02
H52  4.355377839417E-01 -3.711726805559E-01 -9.585353065250E-02
H53 -3.550466878220E-01  4.772598984627E-01 -4.812548458071E-02
H54  3.550466878220E-01 -4.772598984627E-01  4.812548458071E-02
H55 -4.503046799989E-02  4.034772483026E-01 -1.277875321485E-01
H56  4.503046799989E-02 -4.034772483026E-01  1.277875321485E-01
H57  2.702006178206E-01  2.559408840473E-01 -1.356118399810E-01
H58 -2.702006178206E-01 -2.559408840473E-01  1.356118399810E-01
H59  2.760178006292E-01  4.028441932313E-01  3.761440031463E-01
H60 -2.760178006292E-01 -4.028441932313E-01 -3.761440031463E-01
H61  2.597582143494E-01  4.123697028363E-01  1.867113853061E-01
H62 -2.597582143494E-01 -4.123697028363E-01 -1.867113853061E-01
H63  7.597906859235E-02  3.608173854130E-01  2.639760152330E-01
H64 -7.597906859235E-02 -3.608173854130E-01 -2.639760152330E-01
H65  2.790210860593E-01  2.169269835921E-01  2.415690935523E-01
H66 -2.790210860593E-01 -2.169269835921E-01 -2.415690935523E-01
H67 -4.236838601788E-01  2.822119571124E-01  2.907131246616E-01
H68  4.236838601788E-01 -2.822119571124E-01 -2.907131246616E-01
H69 -3.941707253978E-01  4.817688621190E-01  3.462470155290E-01
H70  3.941707253978E-01 -4.817688621190E-01 -3.462470155290E-01
H71 -4.096048542796E-01  4.823015503871E-01  2.375243242751E-01
H72  4.096048542796E-01 -4.823015503871E-01 -2.375243242751E-01
H73 -4.975917872150E-01 -1.926553141813E-01  3.915755239067E-01
H74  4.975917872150E-01  1.926553141813E-01 -3.915755239067E-01
H75  4.020853717494E-01 -2.272096918172E-01 -4.574268536804E-01
H76 -4.020853717494E-01  2.272096918172E-01  4.574268536804E-01
H77  3.646468635059E-01 -4.249156016705E-01  4.867175942853E-01
H78 -3.646468635059E-01  4.249156016705E-01 -4.867175942853E-01
H79  1.751041063664E-01 -2.733511986980E-01 -4.766243794057E-01
H80 -1.751041063664E-01  2.733511986980E-01  4.766243794057E-01
H81  1.330369576355E-01  2.024534253195E-02  4.487019699662E-01
H82 -1.330369576355E-01 -2.024534253195E-02 -4.487019699662E-01
H83  3.104282606471E-01  7.894133032639E-02  3.697944515730E-01
H84 -3.104282606471E-01 -7.894133032639E-02 -3.697944515730E-01
H85  3.529511934275E-01  7.227054273576E-02  4.760049071326E-01
H86 -3.529511934275E-01 -7.227054273576E-02 -4.760049071326E-01
H87 -4.628840300917E-02 -3.554583227667E-01  2.765716891613E-01
H88  4.628840300917E-02  3.554583227667E-01 -2.765716891613E-01
H89 -5.790888089490E-02 -4.888241118316E-01  4.149305155385E-01
H90  5.790888089490E-02  4.888241118316E-01 -4.149305155385E-01
H91 -2.591613799279E-01 -3.457267150586E-01  4.141561414121E-01
H92  2.591613799279E-01  3.457267150586E-01 -4.141561414121E-01
H93 -7.441813901490E-02 -2.771205680974E-01  4.662074021497E-01
H94  7.441813901490E-02  2.771205680974E-01 -4.662074021497E-01
H95 -1.571905491584E-02 -2.047365589739E-02  2.682832353509E-01
H96  1.571905491584E-02  2.047365589739E-02 -2.682832353509E-01
H97 -1.015081834447E-01 -1.410898409797E-03  3.763057280251E-01
H98  1.015081834447E-01  1.410898409797E-03 -3.763057280251E-01
H99 -2.417667842861E-01 -8.849032804599E-02  3.043779925550E-01
H100  2.417667842861E-01  8.849032804599E-02 -3.043779925550E-01


#===END

data_OPT_STEP_55

_symmetry_space_group_name_H-M 'P 1'
_cell_length_a      7.21141346
_cell_length_b      7.57487976
_cell_length_c     16.07692967
_cell_angle_alpha   92.169261
_cell_angle_beta   82.454516
_cell_angle_gamma   86.907210

loop_
_atom_site_label
_atom_site_fract_x
_atom_site_fract_y
_atom_site_fract_z
SI1  2.488893679138E-01 -2.992637312142E-01  3.237714456077E-01
SI2 -2.488893679138E-01  2.992637312142E-01 -3.237714456077E-01
C3  4.520078479929E-01 -6.288278860625E-02  8.142510193669E-02
C4 -4.520078479929E-01  6.288278860625E-02 -8.142510193669E-02
C5  3.205399267455E-01  4.448652670707E-02  4.551705846855E-02
C6 -3.205399267455E-01 -4.448652670707E-02 -4.551705846855E-02
C7  1.414088041942E-01  8.948328864605E-02  8.825268385517E-02
C8 -1.414088041942E-01 -8.948328864605E-02 -8.825268385517E-02
C9  1.112781992631E-02  1.931406447418E-01  5.366300770484E-02
C10 -1.112781992631E-02 -1.931406447418E-01 -5.366300770484E-02
C11 -1.704293395870E-01  2.393439259263E-01  9.782665165326E-02
C12  1.704293395870E-01 -2.393439259263E-01 -9.782665165326E-02
C13 -2.971593261277E-01  3.391001201527E-01  6.189365320496E-02
C14  2.971593261277E-01 -3.391001201527E-01 -6.189365320496E-02
C15 -2.512470182084E-01  3.981556545141E-01 -2.071063054539E-02
C16  2.512470182084E-01 -3.981556545141E-01  2.071063054539E-02
C17 -8.029167917716E-02  3.568405345803E-01 -6.506485814107E-02
C18  8.029167917716E-02 -3.568405345803E-01  6.506485814107E-02
C19  5.768664235522E-02  2.534007699016E-01 -2.978357412836E-02
C20 -5.768664235522E-02 -2.534007699016E-01  2.978357412836E-02
C21  2.337650335088E-01  2.098916439249E-01 -7.278842049032E-02
C22 -2.337650335088E-01 -2.098916439249E-01  7.278842049032E-02
C23  3.683572783011E-01  1.076230437996E-01 -3.740586918267E-02
C24 -3.683572783011E-01 -1.076230437996E-01  3.740586918267E-02
C25  4.000021476505E-01 -1.314858331678E-01  1.608783744691E-01
C26 -4.000021476505E-01  1.314858331678E-01 -1.608783744691E-01
C27  3.483841820405E-01 -1.953001285983E-01  2.276507353322E-01
C28 -3.483841820405E-01  1.953001285983E-01 -2.276507353322E-01
C29  3.230454740484E-01  4.547372986159E-01  3.143475795263E-01
C30 -3.230454740484E-01 -4.547372986159E-01 -3.143475795263E-01
C31  2.284225142701E-01  3.563795932327E-01  2.485298256386E-01
C32 -2.284225142701E-01 -3.563795932327E-01 -2.485298256386E-01
C33 -4.643412648610E-01  4.245009862836E-01  2.962365486697E-01
C34  4.643412648610E-01 -4.245009862836E-01 -2.962365486697E-01
C35  3.514372509275E-01 -1.872223341484E-01  4.139413253883E-01
C36 -3.514372509275E-01  1.872223341484E-01 -4.139413253883E-01
C37  3.229099013900E-01 -2.839173640425E-01  4.955788726736E-01
C38 -3.229099013900E-01  2.839173640425E-01 -4.955788726736E-01
C39  2.833294404245E-01  6.816341794527E-03  4.274757354481E-01
C40 -2.833294404245E-01 -6.816341794527E-03 -4.274757354481E-01
C41 -1.675529468249E-02 -2.722568622666E-01  3.302349607544E-01
C42  1.675529468249E-02  2.722568622666E-01 -3.302349607544E-01
C43 -1.063477622822E-01 -3.504159720768E-01  4.108022502633E-01
C44  1.063477622822E-01  3.504159720768E-01 -4.108022502633E-01
C45 -9.795740058393E-02 -8.576111492775E-02  3.190364084102E-01
C46  9.795740058393E-02  8.576111492775E-02 -3.190364084102E-01
H47  1.043979524990E-01  3.841868630597E-02  1.498033937873E-01
H48 -1.043979524990E-01 -3.841868630597E-02 -1.498033937873E-01
H49 -2.060009438317E-01  1.902422143166E-01  1.601023717558E-01
H50  2.060009438317E-01 -1.902422143166E-01 -1.601023717558E-01
H51 -4.356492347763E-01  3.709376638687E-01  9.581831028496E-02
H52  4.356492347763E-01 -3.709376638687E-01 -9.581831028496E-02
H53 -3.550689430763E-01  4.771927455354E-01 -4.812086174829E-02
H54  3.550689430763E-01 -4.771927455354E-01  4.812086174829E-02
H55 -4.500113256903E-02  4.035970983445E-01 -1.277374553053E-01
H56  4.500113256903E-02 -4.035970983445E-01  1.277374553053E-01
H57  2.703216642184E-01  2.560740861484E-01 -1.355663940693E-01
H58 -2.703216642184E-01 -2.560740861484E-01  1.355663940693E-01
H59  2.763724380643E-01  4.028072202068E-01  3.761186026715E-01
H60 -2.763724380643E-01 -4.028072202068E-01 -3.761186026715E-01
H61  2.594582688309E-01  4.121084028869E-01  1.867386142862E-01
H62 -2.594582688309E-01 -4.121084028869E-01 -1.867386142862E-01
H63  7.585535052640E-02  3.605960427440E-01  2.641399660081E-01
H64 -7.585535052640E-02 -3.605960427440E-01 -2.641399660081E-01
H65  2.789574099384E-01  2.168115993047E-01  2.416502300962E-01
H66 -2.789574099384E-01 -2.168115993047E-01 -2.416502300962E-01
H67 -4.233902847672E-01  2.824930539494E-01  2.906630740299E-01
H68  4.233902847672E-01 -2.824930539494E-01 -2.906630740299E-01
H69 -3.938388531286E-01  4.824864579691E-01  3.458606614461E-01
H70  3.938388531286E-01 -4.824864579691E-01 -3.458606614461E-01
H71 -4.098167388025E-01  4.822325541786E-01  2.371670367557E-01
H72  4.098167388025E-01 -4.822325541786E-01 -2.371670367557E-01
H73 -4.976444504237E-01 -1.922097324814E-01  3.913835261865E-01
H74  4.976444504237E-01  1.922097324814E-01 -3.913835261865E-01
H75  4.027414932499E-01 -2.268880058632E-01 -4.576173085453E-01
H76 -4.027414932499E-01  2.268880058632E-01  4.576173085453E-01
H77  3.655877819693E-01 -4.247670073608E-01  4.865885320633E-01
H78 -3.655877819693E-01  4.247670073608E-01 -4.865885320633E-01
H79  1.757314071713E-01 -2.736391550893E-01 -4.766316840620E-01
H80 -1.757314071713E-01  2.736391550893E-01  4.766316840620E-01
H81  1.325292560077E-01  1.971336193909E-02  4.487640676079E-01
H82 -1.325292560077E-01 -1.971336193909E-02 -4.487640676079E-01
H83  3.093832888187E-01  7.878277337493E-02  3.697872552967E-01
H84 -3.093832888187E-01 -7.878277337493E-02 -3.697872552967E-01
H85  3.524399752469E-01  7.241535193323E-02  4.758880843431E-01
H86 -3.524399752469E-01 -7.241535193323E-02 -4.758880843431E-01
H87 -4.670366839798E-02 -3.561081609794E-01  2.768362791154E-01
H88  4.670366839798E-02  3.561081609794E-01 -2.768362791154E-01
H89 -5.779975786617E-02 -4.885677239794E-01  4.153835575939E-01
H90  5.779975786617E-02  4.885677239794E-01 -4.153835575939E-01
H91 -2.591735615297E-01 -3.455594321019E-01  4.145898301689E-01
H92  2.591735615297E-01  3.455594321019E-01 -4.145898301689E-01
H93 -7.412732317021E-02 -2.765341317225E-01  4.663470377865E-01
H94  7.412732317021E-02  2.765341317225E-01 -4.663470377865E-01
H95 -1.599965644448E-02 -2.127435216549E-02  2.680472991436E-01
H96  1.599965644448E-02  2.127435216549E-02 -2.680472991436E-01
H97 -1.016979867052E-01 -1.521816413454E-03  3.760666356498E-01
H98  1.016979867052E-01  1.521816413454E-03 -3.760666356498E-01
H99 -2.420627196723E-01 -8.910317356490E-02  3.042968452868E-01
H100  2.420627196723E-01  8.910317356490E-02 -3.042968452868E-01


#===END

data_OPT_STEP_56

_symmetry_space_group_name_H-M 'P 1'
_cell_length_a      7.20675586
_cell_length_b      7.58044108
_cell_length_c     16.07132997
_cell_angle_alpha   92.180399
_cell_angle_beta   82.524214
_cell_angle_gamma   86.935610

loop_
_atom_site_label
_atom_site_fract_x
_atom_site_fract_y
_atom_site_fract_z
SI1  2.490790744510E-01 -2.995756433231E-01  3.237405052631E-01
SI2 -2.490790744510E-01  2.995756433231E-01 -3.237405052631E-01
C3  4.520379421286E-01 -6.288257549538E-02  8.142411780775E-02
C4 -4.520379421286E-01  6.288257549538E-02 -8.142411780775E-02
C5  3.205581644986E-01  4.442156259266E-02  4.547665322485E-02
C6 -3.205581644986E-01 -4.442156259266E-02 -4.547665322485E-02
C7  1.414817556688E-01  8.947130147185E-02  8.820685711297E-02
C8 -1.414817556688E-01 -8.947130147185E-02 -8.820685711297E-02
C9  1.119463061884E-02  1.934005403233E-01  5.371581728223E-02
C10 -1.119463061884E-02 -1.934005403233E-01 -5.371581728223E-02
C11 -1.703395314888E-01  2.395968434227E-01  9.789939030193E-02
C12  1.703395314888E-01 -2.395968434227E-01 -9.789939030193E-02
C13 -2.972793235103E-01  3.388712220286E-01  6.182836792873E-02
C14  2.972793235103E-01 -3.388712220286E-01 -6.182836792873E-02
C15 -2.515270318560E-01  3.979173610177E-01 -2.077588804153E-02
C16  2.515270318560E-01 -3.979173610177E-01  2.077588804153E-02
C17 -8.051839149443E-02  3.569691447742E-01 -6.503675234416E-02
C18  8.051839149443E-02 -3.569691447742E-01  6.503675234416E-02
C19  5.761144346721E-02  2.535689624478E-01 -2.976478525901E-02
C20 -5.761144346721E-02 -2.535689624478E-01  2.976478525901E-02
C21  2.336540221241E-01  2.098750272097E-01 -7.282786207278E-02
C22 -2.336540221241E-01 -2.098750272097E-01  7.282786207278E-02
C23  3.683453242317E-01  1.076637465657E-01 -3.741675579492E-02
C24 -3.683453242317E-01 -1.076637465657E-01  3.741675579492E-02
C25  3.999723583334E-01 -1.315714851152E-01  1.608584593601E-01
C26 -3.999723583334E-01  1.315714851152E-01 -1.608584593601E-01
C27  3.482523735714E-01 -1.957559262015E-01  2.275278268391E-01
C28 -3.482523735714E-01  1.957559262015E-01 -2.275278268391E-01
C29  3.236777693237E-01  4.547873768822E-01  3.143722490514E-01
C30 -3.236777693237E-01 -4.547873768822E-01 -3.143722490514E-01
C31  2.284310912503E-01  3.560113760055E-01  2.488140987115E-01
C32 -2.284310912503E-01 -3.560113760055E-01 -2.488140987115E-01
C33 -4.635797567291E-01  4.251728183117E-01  2.959356222381E-01
C34  4.635797567291E-01 -4.251728183117E-01 -2.959356222381E-01
C35  3.517939340687E-01 -1.870737767892E-01  4.139107188323E-01
C36 -3.517939340687E-01  1.870737767892E-01 -4.139107188323E-01
C37  3.244757079397E-01 -2.838966838773E-01  4.955338005736E-01
C38 -3.244757079397E-01  2.838966838773E-01 -4.955338005736E-01
C39  2.823211925717E-01  6.435537264257E-03  4.276081092240E-01
C40 -2.823211925717E-01 -6.435537264257E-03 -4.276081092240E-01
C41 -1.677869889654E-02 -2.731639124603E-01  3.303779777883E-01
C42  1.677869889654E-02  2.731639124603E-01 -3.303779777883E-01
C43 -1.056482812265E-01 -3.501194765613E-01  4.113605116613E-01
C44  1.056482812265E-01  3.501194765613E-01 -4.113605116613E-01
C45 -9.841598764941E-02 -8.724250822610E-02  3.185420523887E-01
C46  9.841598764941E-02  8.724250822610E-02 -3.185420523887E-01
H47  1.046225011413E-01  3.877499005043E-02  1.498803378909E-01
H48 -1.046225011413E-01 -3.877499005043E-02 -1.498803378909E-01
H49 -2.058258119989E-01  1.904083710787E-01  1.601444367812E-01
H50  2.058258119989E-01 -1.904083710787E-01 -1.601444367812E-01
H51 -4.357983980215E-01  3.704984982695E-01  9.572253023868E-02
H52  4.357983980215E-01 -3.704984982695E-01 -9.572253023868E-02
H53 -3.554651593374E-01  4.769516508482E-01 -4.815698820147E-02
H54  3.554651593374E-01 -4.769516508482E-01  4.815698820147E-02
H55 -4.542988600425E-02  4.036250078273E-01 -1.277471901170E-01
H56  4.542988600425E-02 -4.036250078273E-01  1.277471901170E-01
H57  2.701894288645E-01  2.562794880817E-01 -1.355345200148E-01
H58 -2.701894288645E-01 -2.562794880817E-01  1.355345200148E-01
H59  2.777523354753E-01  4.029675807449E-01  3.762457692511E-01
H60 -2.777523354753E-01 -4.029675807449E-01 -3.762457692511E-01
H61  2.589198329045E-01  4.113044585844E-01  1.868765091782E-01
H62 -2.589198329045E-01 -4.113044585844E-01 -1.868765091782E-01
H63  7.582122489965E-02  3.600782721390E-01  2.646391223564E-01
H64 -7.582122489965E-02 -3.600782721390E-01 -2.646391223564E-01
H65  2.789814769276E-01  2.165808030698E-01  2.420644356592E-01
H66 -2.789814769276E-01 -2.165808030698E-01 -2.420644356592E-01
H67 -4.222683318628E-01  2.833507574852E-01  2.905803612407E-01
H68  4.222683318628E-01 -2.833507574852E-01 -2.905803612407E-01
H69 -3.925664077576E-01  4.838651372143E-01  3.453049241517E-01
H70  3.925664077576E-01 -4.838651372143E-01 -3.453049241517E-01
H71 -4.098399033695E-01  4.825356602082E-01  2.366517862076E-01
H72  4.098399033695E-01 -4.825356602082E-01 -2.366517862076E-01
H73 -4.973876390941E-01 -1.910803128407E-01  3.912158297633E-01
H74  4.973876390941E-01  1.910803128407E-01 -3.912158297633E-01
H75  4.045788886438E-01 -2.266568701175E-01 -4.577494761656E-01
H76 -4.045788886438E-01  2.266568701175E-01  4.577494761656E-01
H77  3.676642823204E-01 -4.244732696605E-01  4.864511313902E-01
H78 -3.676642823204E-01  4.244732696605E-01 -4.864511313902E-01
H79  1.774670160847E-01 -2.742442533346E-01 -4.764912232717E-01
H80 -1.774670160847E-01  2.742442533346E-01  4.764912232717E-01
H81  1.315410903131E-01  1.820988796604E-02  4.489948040174E-01
H82 -1.315410903131E-01 -1.820988796604E-02 -4.489948040174E-01
H83  3.074212965875E-01  7.852504090612E-02  3.699504661369E-01
H84 -3.074212965875E-01 -7.852504090612E-02 -3.699504661369E-01
H85  3.513235650481E-01  7.250660077219E-02  4.760055816088E-01
H86 -3.513235650481E-01 -7.250660077219E-02 -4.760055816088E-01
H87 -4.706621110701E-02 -3.579686521478E-01  2.773323471079E-01
H88  4.706621110701E-02  3.579686521478E-01 -2.773323471079E-01
H89 -5.697490433683E-02 -4.879359086773E-01  4.163587349142E-01
H90  5.697490433683E-02  4.879359086773E-01 -4.163587349142E-01
H91 -2.585895066563E-01 -3.454574839776E-01  4.154296694221E-01
H92  2.585895066563E-01  3.454574839776E-01 -4.154296694221E-01
H93 -7.280936032890E-02 -2.754481743272E-01  4.665710110261E-01
H94  7.280936032890E-02  2.754481743272E-01 -4.665710110261E-01
H95 -1.678950595162E-02 -2.349205617964E-02  2.672407825244E-01
H96  1.678950595162E-02  2.349205617964E-02 -2.672407825244E-01
H97 -1.020188022258E-01 -2.030331755175E-03  3.752622991845E-01
H98  1.020188022258E-01  2.030331755175E-03 -3.752622991845E-01
H99 -2.426567013912E-01 -9.126344689559E-02  3.038805888930E-01
H100  2.426567013912E-01  9.126344689559E-02 -3.038805888930E-01


#===END

data_OPT_STEP_57

_symmetry_space_group_name_H-M 'P 1'
_cell_length_a      7.20554389
_cell_length_b      7.58084115
_cell_length_c     16.07122633
_cell_angle_alpha   92.172443
_cell_angle_beta   82.530077
_cell_angle_gamma   86.937295

loop_
_atom_site_label
_atom_site_fract_x
_atom_site_fract_y
_atom_site_fract_z
SI1  2.491241412019E-01 -2.996584759716E-01  3.237365902490E-01
SI2 -2.491241412019E-01  2.996584759716E-01 -3.237365902490E-01
C3  4.520679006127E-01 -6.288625104224E-02  8.142693207871E-02
C4 -4.520679006127E-01  6.288625104224E-02 -8.142693207871E-02
C5  3.205804237392E-01  4.444989738493E-02  4.548655648853E-02
C6 -3.205804237392E-01 -4.444989738493E-02 -4.548655648853E-02
C7  1.415244900461E-01  8.953891939744E-02  8.823187349693E-02
C8 -1.415244900461E-01 -8.953891939744E-02 -8.823187349693E-02
C9  1.116990251187E-02  1.933274238456E-01  5.369779561124E-02
C10 -1.116990251187E-02 -1.933274238456E-01 -5.369779561124E-02
C11 -1.703588623941E-01  2.394929029213E-01  9.787591514883E-02
C12  1.703588623941E-01 -2.394929029213E-01 -9.787591514883E-02
C13 -2.973141522871E-01  3.389320117362E-01  6.186400588448E-02
C14  2.973141522871E-01 -3.389320117362E-01 -6.186400588448E-02
C15 -2.516135354220E-01  3.979433927352E-01 -2.075031713909E-02
C16  2.516135354220E-01 -3.979433927352E-01  2.075031713909E-02
C17 -8.062264511897E-02  3.569130647611E-01 -6.504457995104E-02
C18  8.062264511897E-02 -3.569130647611E-01  6.504457995104E-02
C19  5.755308518673E-02  2.535408654132E-01 -2.976963422237E-02
C20 -5.755308518673E-02 -2.535408654132E-01  2.976963422237E-02
C21  2.336225872896E-01  2.099502313008E-01 -7.280591235508E-02
C22 -2.336225872896E-01 -2.099502313008E-01  7.280591235508E-02
C23  3.683218164742E-01  1.076654480777E-01 -3.741794735217E-02
C24 -3.683218164742E-01 -1.076654480777E-01  3.741794735217E-02
C25  4.000019249575E-01 -1.316048330625E-01  1.608580174985E-01
C26 -4.000019249575E-01  1.316048330625E-01 -1.608580174985E-01
C27  3.482875727515E-01 -1.958970389785E-01  2.275044314146E-01
C28 -3.482875727515E-01  1.958970389785E-01 -2.275044314146E-01
C29  3.237977839361E-01  4.547355614853E-01  3.144261278682E-01
C30 -3.237977839361E-01 -4.547355614853E-01 -3.144261278682E-01
C31  2.286712360902E-01  3.558800885159E-01  2.488508580036E-01
C32 -2.286712360902E-01 -3.558800885159E-01 -2.488508580036E-01
C33 -4.634320802115E-01  4.251666774846E-01  2.960575708780E-01
C34  4.634320802115E-01 -4.251666774846E-01 -2.960575708780E-01
C35  3.517922566532E-01 -1.870458533576E-01  4.138943193662E-01
C36 -3.517922566532E-01  1.870458533576E-01 -4.138943193662E-01
C37  3.246653338087E-01 -2.839195221816E-01  4.955032516524E-01
C38 -3.246653338087E-01  2.839195221816E-01 -4.955032516524E-01
C39  2.819484084119E-01  6.345620004200E-03  4.276161779072E-01
C40 -2.819484084119E-01 -6.345620004200E-03 -4.276161779072E-01
C41 -1.680549688285E-02 -2.733464487156E-01  3.303825417292E-01
C42  1.680549688285E-02  2.733464487156E-01 -3.303825417292E-01
C43 -1.055803881403E-01 -3.499387647659E-01  4.114765684499E-01
C44  1.055803881403E-01  3.499387647659E-01 -4.114765684499E-01
C45 -9.855465478788E-02 -8.755654515763E-02  3.183416552380E-01
C46  9.855465478788E-02  8.755654515763E-02 -3.183416552379E-01
H47  1.046866307654E-01  3.875039347210E-02  1.498702595522E-01
H48 -1.046866307654E-01 -3.875039347210E-02 -1.498702595522E-01
H49 -2.058028952640E-01  1.903499691086E-01  1.601383321877E-01
H50  2.058028952640E-01 -1.903499691086E-01 -1.601383321877E-01
H51 -4.358328656456E-01  3.705282385792E-01  9.575223132096E-02
H52  4.358328656456E-01 -3.705282385792E-01 -9.575223132096E-02
H53 -3.556183656442E-01  4.768595510974E-01 -4.816853464708E-02
H54  3.556183656442E-01 -4.768595510974E-01  4.816853464708E-02
H55 -4.559251760326E-02  4.035110944296E-01 -1.277699949050E-01
H56  4.559251760326E-02 -4.035110944296E-01  1.277699949050E-01
H57  2.700950391902E-01  2.562418095004E-01 -1.355549141255E-01
H58 -2.700950391902E-01 -2.562418095004E-01  1.355549141255E-01
H59  2.778245507624E-01  4.029415794418E-01  3.762991224888E-01
H60 -2.778245507624E-01 -4.029415794418E-01 -3.762991224888E-01
H61  2.591589421422E-01  4.111420477938E-01  1.869093023897E-01
H62 -2.591589421422E-01 -4.111420477938E-01 -1.869093023897E-01
H63  7.604431030118E-02  3.598618742994E-01  2.646410611444E-01
H64 -7.604431030118E-02 -3.598618742994E-01 -2.646410611444E-01
H65  2.793206538882E-01  2.164907149393E-01  2.421267048584E-01
H66 -2.793206538882E-01 -2.164907149393E-01 -2.421267048584E-01
H67 -4.220603939536E-01  2.833771126417E-01  2.906864987845E-01
H68  4.220603939536E-01 -2.833771126417E-01 -2.906864987845E-01
H69 -3.925222497570E-01  4.838073316168E-01  3.454661240660E-01
H70  3.925222497570E-01 -4.838073316168E-01 -3.454661240660E-01
H71 -4.096279780837E-01  4.825891154684E-01  2.368086754662E-01
H72  4.096279780837E-01 -4.825891154684E-01 -2.368086754662E-01
H73 -4.973652203850E-01 -1.907885186043E-01  3.911867065671E-01
H74  4.973652203850E-01  1.907885186043E-01 -3.911867065671E-01
H75  4.047097273015E-01 -2.265756490644E-01 -4.577735695669E-01
H76 -4.047097273015E-01  2.265756490644E-01  4.577735695669E-01
H77  3.681086009441E-01 -4.244310762847E-01  4.863865717347E-01
H78 -3.681086009441E-01  4.244310762847E-01 -4.863865717347E-01
H79  1.776335412437E-01 -2.745117886119E-01 -4.765199433543E-01
H80 -1.776335412437E-01  2.745117886119E-01  4.765199433543E-01
H81  1.311670579397E-01  1.786042754440E-02  4.490579566658E-01
H82 -1.311670579397E-01 -1.786042754440E-02 -4.490579566658E-01
H83  3.067856670765E-01  7.852214703525E-02  3.699616219393E-01
H84 -3.067856670765E-01 -7.852214703525E-02 -3.699616219393E-01
H85  3.509589548960E-01  7.249577690810E-02  4.759727405626E-01
H86 -3.509589548960E-01 -7.249577690810E-02 -4.759727405626E-01
H87 -4.711280028719E-02 -3.584358202744E-01  2.774384143289E-01
H88  4.711280028719E-02  3.584358202744E-01 -2.774384143289E-01
H89 -5.672255278230E-02 -4.876260811772E-01  4.166562374835E-01
H90  5.672255278230E-02  4.876260811772E-01 -4.166562374835E-01
H91 -2.585505428522E-01 -3.455013276269E-01  4.155617104697E-01
H92  2.585505428522E-01  3.455013276269E-01 -4.155617104697E-01
H93 -7.279743285267E-02 -2.749060775057E-01  4.665872979282E-01
H94  7.279743285267E-02  2.749060775057E-01 -4.665872979282E-01
H95 -1.699787507313E-02 -2.400963787341E-02  2.669494180876E-01
H96  1.699787507313E-02  2.400963787341E-02 -2.669494180876E-01
H97 -1.021329570731E-01 -2.074961423862E-03  3.749531271897E-01
H98  1.021329570731E-01  2.074961423862E-03 -3.749531271897E-01
H99 -2.428198965038E-01 -9.174916303664E-02  3.037071419237E-01
H100  2.428198965038E-01  9.174916303664E-02 -3.037071419237E-01


#===END

data_OPT_STEP_58

_symmetry_space_group_name_H-M 'P 1'
_cell_length_a      7.20209903
_cell_length_b      7.58335295
_cell_length_c     16.06724496
_cell_angle_alpha   92.163928
_cell_angle_beta   82.552971
_cell_angle_gamma   86.967768

loop_
_atom_site_label
_atom_site_fract_x
_atom_site_fract_y
_atom_site_fract_z
SI1  2.492054992448E-01 -2.999512919846E-01  3.237150249107E-01
SI2 -2.492054992448E-01  2.999512919846E-01 -3.237150249107E-01
C3  4.520937081317E-01 -6.294750372700E-02  8.142806464181E-02
C4 -4.520937081317E-01  6.294750372700E-02 -8.142806464181E-02
C5  3.205998673695E-01  4.448672418818E-02  4.551913447624E-02
C6 -3.205998673695E-01 -4.448672418818E-02 -4.551913447624E-02
C7  1.415483000588E-01  8.957825659083E-02  8.828642495285E-02
C8 -1.415483000589E-01 -8.957825659083E-02 -8.828642495285E-02
C9  1.113748705305E-02  1.932804286933E-01  5.372179728864E-02
C10 -1.113748705305E-02 -1.932804286933E-01 -5.372179728864E-02
C11 -1.703956285531E-01  2.394239093730E-01  9.790520069827E-02
C12  1.703956285531E-01 -2.394239093730E-01 -9.790520069827E-02
C13 -2.973886567696E-01  3.389328438383E-01  6.191790170376E-02
C14  2.973886567696E-01 -3.389328438383E-01 -6.191790170376E-02
C15 -2.517239840106E-01  3.978979905491E-01 -2.072370994510E-02
C16  2.517239840106E-01 -3.978979905491E-01  2.072370994510E-02
C17 -8.072425613659E-02  3.568092422553E-01 -6.505175180041E-02
C18  8.072425613659E-02 -3.568092422553E-01  6.505175180041E-02
C19  5.749998496690E-02  2.535224791276E-01 -2.975507139696E-02
C20 -5.749998496690E-02 -2.535224791276E-01  2.975507139696E-02
C21  2.335902393456E-01  2.100297115801E-01 -7.278019867387E-02
C22 -2.335902393456E-01 -2.100297115801E-01  7.278019867387E-02
C23  3.682978178577E-01  1.077034039825E-01 -3.740591142640E-02
C24 -3.682978178577E-01 -1.077034039825E-01  3.740591142640E-02
C25  4.000126395855E-01 -1.317884525849E-01  1.608395477723E-01
C26 -4.000126395855E-01  1.317884525849E-01 -1.608395477723E-01
C27  3.482860959157E-01 -1.962586742646E-01  2.274449952615E-01
C28 -3.482860959157E-01  1.962586742646E-01 -2.274449952615E-01
C29  3.240132788746E-01  4.545778079343E-01  3.144882170431E-01
C30 -3.240132788746E-01 -4.545778079343E-01 -3.144882170431E-01
C31  2.290993649068E-01  3.556315349920E-01  2.488300755214E-01
C32 -2.290993649068E-01 -3.556315349920E-01 -2.488300755214E-01
C33 -4.631372249383E-01  4.252109313863E-01  2.962427811281E-01
C34  4.631372249383E-01 -4.252109313863E-01 -2.962427811281E-01
C35  3.519167343638E-01 -1.871301089257E-01  4.138287017133E-01
C36 -3.519167343638E-01  1.871301089257E-01 -4.138287017133E-01
C37  3.251649897642E-01 -2.840342809774E-01  4.954469178156E-01
C38 -3.251649897642E-01  2.840342809774E-01 -4.954469178156E-01
C39  2.816301792827E-01  6.049742996692E-03  4.275540035512E-01
C40 -2.816301792827E-01 -6.049742996692E-03 -4.275540035512E-01
C41 -1.683761301232E-02 -2.737879177521E-01  3.304098659133E-01
C42  1.683761301232E-02  2.737879177521E-01 -3.304098659133E-01
C43 -1.054271425192E-01 -3.495415904719E-01  4.117712373212E-01
C44  1.054271425192E-01  3.495415904719E-01 -4.117712373212E-01
C45 -9.853833871916E-02 -8.827286462141E-02  3.179756071800E-01
C46  9.853833871916E-02  8.827286462141E-02 -3.179756071800E-01
H47  1.047399595512E-01  3.873772691824E-02  1.499146120634E-01
H48 -1.047399595512E-01 -3.873772691824E-02 -1.499146120634E-01
H49 -2.058146077542E-01  1.903154696999E-01  1.601893006536E-01
H50  2.058146077542E-01 -1.903154696999E-01 -1.601893006536E-01
H51 -4.359195795588E-01  3.704901021009E-01  9.582871152126E-02
H52  4.359195795588E-01 -3.704901021009E-01 -9.582871152126E-02
H53 -3.557820116901E-01  4.766657661378E-01 -4.819778981432E-02
H54  3.557820116901E-01 -4.766657661378E-01  4.819778981432E-02
H55 -4.574341502788E-02  4.033402973198E-01 -1.277991789016E-01
H56  4.574341502788E-02 -4.033402973198E-01  1.277991789016E-01
H57  2.700288990977E-01  2.562862752710E-01 -1.355599884877E-01
H58 -2.700288990977E-01 -2.562862752710E-01  1.355599884877E-01
H59  2.779425151632E-01  4.027798562017E-01  3.763578349158E-01
H60 -2.779425151632E-01 -4.027798562017E-01 -3.763578349158E-01
H61  2.594663519063E-01  4.110360721630E-01  1.869186775318E-01
H62 -2.594663519063E-01 -4.110360721630E-01 -1.869186775318E-01
H63  7.643575019541E-02  3.592586486655E-01  2.645712481444E-01
H64 -7.643575019541E-02 -3.592586486655E-01 -2.645712481444E-01
H65  2.800686822711E-01  2.164067433189E-01  2.420560130124E-01
H66 -2.800686822711E-01 -2.164067433189E-01 -2.420560130124E-01
H67 -4.216533804520E-01  2.834923476265E-01  2.909632082363E-01
H68  4.216533804520E-01 -2.834923476265E-01 -2.909632082363E-01
H69 -3.923563368606E-01  4.840374844242E-01  3.456861223193E-01
H70  3.923563368606E-01 -4.840374844242E-01 -3.456861223193E-01
H71 -4.092529300145E-01  4.825402427235E-01  2.369738089505E-01
H72  4.092529300145E-01 -4.825402427235E-01 -2.369738089505E-01
H73 -4.972218475779E-01 -1.904949275216E-01  3.910994660260E-01
H74  4.972218475779E-01  1.904949275216E-01 -3.910994660260E-01
H75  4.052174620258E-01 -2.264769597975E-01 -4.578443404099E-01
H76 -4.052174620258E-01  2.264769597975E-01  4.578443404099E-01
H77  3.689823665104E-01 -4.244072960375E-01  4.862933213632E-01
H78 -3.689823665104E-01  4.244072960375E-01 -4.862933213632E-01
H79  1.781117169865E-01 -2.750450775008E-01 -4.765423894040E-01
H80 -1.781117169865E-01  2.750450775008E-01  4.765423894040E-01
H81  1.308098861621E-01  1.720175169987E-02  4.490360141553E-01
H82 -1.308098861621E-01 -1.720175169987E-02 -4.490360141553E-01
H83  3.061912236850E-01  7.831345729493E-02  3.698910646319E-01
H84 -3.061912236850E-01 -7.831345729493E-02 -3.698910646319E-01
H85  3.506374416236E-01  7.233917614950E-02  4.758905647891E-01
H86 -3.506374416236E-01 -7.233917614950E-02 -4.758905647891E-01
H87 -4.736914614728E-02 -3.593647919742E-01  2.776680120457E-01
H88  4.736914614728E-02  3.593647919742E-01 -2.776680120457E-01
H89 -5.626279680131E-02 -4.869723005417E-01  4.173616951894E-01
H90  5.626279680131E-02  4.869723005417E-01 -4.173616951894E-01
H91 -2.584528133488E-01 -3.455203048400E-01  4.158785114244E-01
H92  2.584528133488E-01  3.455203048400E-01 -4.158785114244E-01
H93 -7.270718967030E-02 -2.736702046184E-01  4.666816980954E-01
H94  7.270718967030E-02  2.736702046184E-01 -4.666816980954E-01
H95 -1.696393953537E-02 -2.523577453601E-02  2.663974732190E-01
H96  1.696393953537E-02  2.523577453601E-02 -2.663974732190E-01
H97 -1.019715557657E-01 -2.327607143049E-03  3.744151683043E-01
H98  1.019715557657E-01  2.327607143049E-03 -3.744151683043E-01
H99 -2.428757889640E-01 -9.264930055099E-02  3.033645808410E-01
H100  2.428757889640E-01  9.264930055099E-02 -3.033645808410E-01


#===END

data_OPT_STEP_59

_symmetry_space_group_name_H-M 'P 1'
_cell_length_a      7.19797059
_cell_length_b      7.58620928
_cell_length_c     16.06588216
_cell_angle_alpha   92.154530
_cell_angle_beta   82.576858
_cell_angle_gamma   86.996343

loop_
_atom_site_label
_atom_site_fract_x
_atom_site_fract_y
_atom_site_fract_z
SI1  2.493916916706E-01 -3.000900895767E-01  3.237118800056E-01
SI2 -2.493916916706E-01  3.000900895767E-01 -3.237118800056E-01
C3  4.521430606841E-01 -6.295307846378E-02  8.143479844660E-02
C4 -4.521430606841E-01  6.295307846378E-02 -8.143479844660E-02
C5  3.206042962204E-01  4.451714437475E-02  4.553866733463E-02
C6 -3.206042962204E-01 -4.451714437475E-02 -4.553866733463E-02
C7  1.415670522650E-01  8.968839821645E-02  8.833346327065E-02
C8 -1.415670522650E-01 -8.968839821645E-02 -8.833346327065E-02
C9  1.108201719229E-02  1.932884491777E-01  5.374343900492E-02
C10 -1.108201719229E-02 -1.932884491777E-01 -5.374343900492E-02
C11 -1.704404371660E-01  2.394765993950E-01  9.793915527545E-02
C12  1.704404371660E-01 -2.394765993950E-01 -9.793915527545E-02
C13 -2.974859117818E-01  3.390244694602E-01  6.197426747301E-02
C14  2.974859117818E-01 -3.390244694602E-01 -6.197426747301E-02
C15 -2.519017801805E-01  3.978451001805E-01 -2.070390374554E-02
C16  2.519017801805E-01 -3.978451001805E-01  2.070390374554E-02
C17 -8.090741930906E-02  3.566472631949E-01 -6.506610737071E-02
C18  8.090741930906E-02 -3.566472631949E-01  6.506610737071E-02
C19  5.738765699370E-02  2.534706977340E-01 -2.974755296170E-02
C20 -5.738765699370E-02 -2.534706977340E-01  2.974755296170E-02
C21  2.334883292381E-01  2.100115779248E-01 -7.277039513325E-02
C22 -2.334883292381E-01 -2.100115779248E-01  7.277039513325E-02
C23  3.682362861588E-01  1.076779314262E-01 -3.740700254196E-02
C24 -3.682362861588E-01 -1.076779314262E-01  3.740700254196E-02
C25  4.000924765626E-01 -1.318100707439E-01  1.608504814501E-01
C26 -4.000924765626E-01  1.318100707439E-01 -1.608504814501E-01
C27  3.483852069261E-01 -1.963811593812E-01  2.274336491967E-01
C28 -3.483852069261E-01  1.963811593812E-01 -2.274336491967E-01
C29  3.244870552960E-01  4.545902520418E-01  3.145359684237E-01
C30 -3.244870552960E-01 -4.545902520418E-01 -3.145359684237E-01
C31  2.296085888303E-01  3.555190158780E-01  2.488481104770E-01
C32 -2.296085888303E-01 -3.555190158780E-01 -2.488481104770E-01
C33 -4.625365643994E-01  4.255290445305E-01  2.963211147568E-01
C34  4.625365643994E-01 -4.255290445305E-01 -2.963211147568E-01
C35  3.520372747524E-01 -1.871455070334E-01  4.138310415944E-01
C36 -3.520372747524E-01  1.871455070334E-01 -4.138310415944E-01
C37  3.254558287713E-01 -2.840807604007E-01  4.954524586951E-01
C38 -3.254558287713E-01  2.840807604007E-01 -4.954524586951E-01
C39  2.815710787657E-01  5.829356739298E-03  4.275316745572E-01
C40 -2.815710787657E-01 -5.829356739298E-03 -4.275316745572E-01
C41 -1.684867757462E-02 -2.742607618910E-01  3.304339615906E-01
C42  1.684867757462E-02  2.742607618910E-01 -3.304339615906E-01
C43 -1.052121955985E-01 -3.492917587089E-01  4.120058197542E-01
C44  1.052121955985E-01  3.492917587089E-01 -4.120058197542E-01
C45 -9.877391494828E-02 -8.906856220163E-02  3.176557560782E-01
C46  9.877391494828E-02  8.906856220163E-02 -3.176557560782E-01
H47  1.048151291379E-01  3.889569910965E-02  1.499677494291E-01
H48 -1.048151291379E-01 -3.889569910965E-02 -1.499677494291E-01
H49 -2.058103148513E-01  1.904781525979E-01  1.602525436569E-01
H50  2.058103148513E-01 -1.904781525979E-01 -1.602525436569E-01
H51 -4.360039744973E-01  3.705914532435E-01  9.592355710773E-02
H52  4.360039744973E-01 -3.705914532435E-01 -9.592355710773E-02
H53 -3.560355544145E-01  4.764196107823E-01 -4.824223285415E-02
H54  3.560355544145E-01 -4.764196107823E-01  4.824223285415E-02
H55 -4.600847074753E-02  4.030077731388E-01 -1.278516432750E-01
H56  4.600847074753E-02 -4.030077731388E-01  1.278516432750E-01
H57  2.698604647232E-01  2.561605746547E-01 -1.355861341322E-01
H58 -2.698604647232E-01 -2.561605746547E-01  1.355861341322E-01
H59  2.784736910058E-01  4.027146470571E-01  3.763980571767E-01
H60 -2.784736910058E-01 -4.027146470571E-01 -3.763980571767E-01
H61  2.596526846531E-01  4.111583384980E-01  1.869756177651E-01
H62 -2.596526846531E-01 -4.111583384980E-01 -1.869756177651E-01
H63  7.690743322764E-02  3.586680187797E-01  2.646193261255E-01
H64 -7.690743322764E-02 -3.586680187797E-01 -2.646193261255E-01
H65  2.809795104104E-01  2.164667211639E-01  2.419827652804E-01
H66 -2.809795104104E-01 -2.164667211639E-01 -2.419827652804E-01
H67 -4.208854400127E-01  2.839320084628E-01  2.909971402597E-01
H68  4.208854400127E-01 -2.839320084628E-01 -2.909971402597E-01
H69 -3.917617906133E-01  4.843328783013E-01  3.457935889172E-01
H70  3.917617906133E-01 -4.843328783013E-01 -3.457935889172E-01
H71 -4.087185615107E-01  4.830054355725E-01  2.370889599514E-01
H72  4.087185615107E-01 -4.830054355725E-01 -2.370889599514E-01
H73 -4.970468420827E-01 -1.902759862605E-01  3.911218925043E-01
H74  4.970468420827E-01  1.902759862605E-01 -3.911218925043E-01
H75  4.054654257984E-01 -2.263782429374E-01 -4.578218324053E-01
H76 -4.054654257984E-01  2.263782429374E-01  4.578218324053E-01
H77  3.696227608420E-01 -4.242838483439E-01  4.862485597384E-01
H78 -3.696227608420E-01  4.242838483439E-01 -4.862485597384E-01
H79  1.783437444976E-01 -2.754939439527E-01 -4.765399620987E-01
H80 -1.783437444976E-01  2.754939439527E-01  4.765399620987E-01
H81  1.306392818192E-01  1.683840702450E-02  4.489316596857E-01
H82 -1.306392818192E-01 -1.683840702450E-02 -4.489316596857E-01
H83  3.062559667859E-01  7.814678139867E-02  3.698733692587E-01
H84 -3.062559667859E-01 -7.814678139867E-02 -3.698733692587E-01
H85  3.504513652262E-01  7.211421309729E-02  4.759420823996E-01
H86 -3.504513652262E-01 -7.211421309729E-02 -4.759420823996E-01
H87 -4.754353279787E-02 -3.603327604024E-01  2.779006384615E-01
H88  4.754353279787E-02  3.603327604024E-01 -2.779006384615E-01
H89 -5.562528446842E-02 -4.863738433826E-01  4.179763979214E-01
H90  5.562528446842E-02  4.863738433826E-01 -4.179763979214E-01
H91 -2.583032357841E-01 -3.458033927318E-01  4.161190136587E-01
H92  2.583032357841E-01  3.458033927318E-01 -4.161190136587E-01
H93 -7.263597616193E-02 -2.726310869704E-01  4.666985385027E-01
H94  7.263597616193E-02  2.726310869704E-01 -4.666985385027E-01
H95 -1.740751632631E-02 -2.644689969328E-02  2.658818467937E-01
H96  1.740751632631E-02  2.644689969328E-02 -2.658818467937E-01
H97 -1.019909092445E-01 -2.626560431364E-03  3.738876152460E-01
H98  1.019909092445E-01  2.626560431364E-03 -3.738876152460E-01
H99 -2.432668432831E-01 -9.380476566838E-02  3.031568507453E-01
H100  2.432668432831E-01  9.380476566838E-02 -3.031568507453E-01


#===END

data_OPT_STEP_60

_symmetry_space_group_name_H-M 'P 1'
_cell_length_a      7.19424705
_cell_length_b      7.58804722
_cell_length_c     16.06462009
_cell_angle_alpha   92.134052
_cell_angle_beta   82.610227
_cell_angle_gamma   87.034897

loop_
_atom_site_label
_atom_site_fract_x
_atom_site_fract_y
_atom_site_fract_z
SI1  2.494661748119E-01 -3.002824203741E-01  3.237163754350E-01
SI2 -2.494661748119E-01  3.002824203741E-01 -3.237163754350E-01
C3  4.522192989036E-01 -6.292178519676E-02  8.145703551263E-02
C4 -4.522192989036E-01  6.292178519676E-02 -8.145703551263E-02
C5  3.206481754990E-01  4.455173991591E-02  4.555472363289E-02
C6 -3.206481754990E-01 -4.455173991591E-02 -4.555472363289E-02
C7  1.416452388409E-01  8.973567185980E-02  8.835705975159E-02
C8 -1.416452388409E-01 -8.973567185980E-02 -8.835705975159E-02
C9  1.109715124776E-02  1.933049978748E-01  5.376400365929E-02
C10 -1.109715124776E-02 -1.933049978748E-01 -5.376400365929E-02
C11 -1.703977800399E-01  2.394860421795E-01  9.796487309217E-02
C12  1.703977800399E-01 -2.394860421795E-01 -9.796487309217E-02
C13 -2.975202145892E-01  3.389898528437E-01  6.199222276044E-02
C14  2.975202145892E-01 -3.389898528437E-01 -6.199222276044E-02
C15 -2.520403640186E-01  3.977743069414E-01 -2.070063099147E-02
C16  2.520403640186E-01 -3.977743069414E-01  2.070063099147E-02
C17 -8.106396491094E-02  3.565646950858E-01 -6.507573551956E-02
C18  8.106396491094E-02 -3.565646950858E-01  6.507573551956E-02
C19  5.731528495496E-02  2.534750642744E-01 -2.973814758255E-02
C20 -5.731528495496E-02 -2.534750642744E-01  2.973814758255E-02
C21  2.333977073778E-01  2.100131477073E-01 -7.277571170686E-02
C22 -2.333977073778E-01 -2.100131477073E-01  7.277571170686E-02
C23  3.681941028378E-01  1.076759619099E-01 -3.741373301087E-02
C24 -3.681941028378E-01 -1.076759619099E-01  3.741373301087E-02
C25  4.001857634490E-01 -1.318342053743E-01  1.608712380232E-01
C26 -4.001857634490E-01  1.318342053743E-01 -1.608712380232E-01
C27  3.484467464956E-01 -1.964942219652E-01  2.274399133027E-01
C28 -3.484467464956E-01  1.964942219652E-01 -2.274399133027E-01
C29  3.246028252583E-01  4.545047734944E-01  3.145925119641E-01
C30 -3.246028252583E-01 -4.545047734944E-01 -3.145925119641E-01
C31  2.297653848843E-01  3.554806828490E-01  2.488349900415E-01
C32 -2.297653848843E-01 -3.554806828490E-01 -2.488349900415E-01
C33 -4.623553898787E-01  4.255623955901E-01  2.964569695094E-01
C34  4.623553898787E-01 -4.255623955901E-01 -2.964569695094E-01
C35  3.520641663300E-01 -1.872872047606E-01  4.138541622442E-01
C36 -3.520641663300E-01  1.872872047606E-01 -4.138541622442E-01
C37  3.256492971122E-01 -2.842886067182E-01  4.954741367410E-01
C38 -3.256492971122E-01  2.842886067182E-01 -4.954741367410E-01
C39  2.813695877981E-01  5.544208590276E-03  4.275393300587E-01
C40 -2.813695877981E-01 -5.544208590276E-03 -4.275393300587E-01
C41 -1.688715015673E-02 -2.746350843364E-01  3.304445514623E-01
C42  1.688715015673E-02  2.746350843364E-01 -3.304445514623E-01
C43 -1.050386354953E-01 -3.488174848158E-01  4.122766436359E-01
C44  1.050386354953E-01  3.488174848158E-01 -4.122766436359E-01
C45 -9.881016429222E-02 -8.975047955364E-02  3.172607729990E-01
C46  9.881016429222E-02  8.975047955364E-02 -3.172607729990E-01
H47  1.049812054176E-01  3.902232674558E-02  1.500216706362E-01
H48 -1.049812054176E-01 -3.902232674558E-02 -1.500216706362E-01
H49 -2.057082799965E-01  1.904978326870E-01  1.602838084824E-01
H50  2.057082799965E-01 -1.904978326870E-01 -1.602838084824E-01
H51 -4.360169509060E-01  3.705067490401E-01  9.596596480654E-02
H52  4.360169509060E-01 -3.705067490401E-01 -9.596596480654E-02
H53 -3.562608778274E-01  4.762290418913E-01 -4.826858353294E-02
H54  3.562608778274E-01 -4.762290418913E-01  4.826858353294E-02
H55 -4.624577139054E-02  4.028587930273E-01 -1.278773701806E-01
H56  4.624577139054E-02 -4.028587930273E-01  1.278773701806E-01
H57  2.697054229612E-01  2.561485910012E-01 -1.356057375499E-01
H58 -2.697054229612E-01 -2.561485910012E-01  1.356057375499E-01
H59  2.785216822625E-01  4.025447079377E-01  3.764305371446E-01
H60 -2.785216822625E-01 -4.025447079377E-01 -3.764305371446E-01
H61  2.596099187916E-01  4.114274091704E-01  1.870156358807E-01
H62 -2.596099187916E-01 -4.114274091704E-01 -1.870156358807E-01
H63  7.703656028904E-02  3.582762807653E-01  2.646129047587E-01
H64 -7.703656028904E-02 -3.582762807653E-01 -2.646129047587E-01
H65  2.813998624910E-01  2.165712448036E-01  2.418566300193E-01
H66 -2.813998624910E-01 -2.165712448036E-01 -2.418566300193E-01
H67 -4.207059479612E-01  2.840140118987E-01  2.912162334961E-01
H68  4.207059479612E-01 -2.840140118987E-01 -2.912162334961E-01
H69 -3.915739049125E-01  4.844681021663E-01  3.459341447675E-01
H70  3.915739049125E-01 -4.844681021663E-01 -3.459341447675E-01
H71 -4.084996422293E-01  4.829656429732E-01  2.372046726540E-01
H72  4.084996422293E-01 -4.829656429732E-01 -2.372046726540E-01
H73 -4.969427451015E-01 -1.901618569809E-01  3.911764918358E-01
H74  4.969427451015E-01  1.901618569809E-01 -3.911764918358E-01
H75  4.056316212760E-01 -2.264450602674E-01 -4.577871658698E-01
H76 -4.056316212760E-01  2.264450602674E-01  4.577871658698E-01
H77  3.701289888663E-01 -4.243283135627E-01  4.862358497162E-01
H78 -3.701289888663E-01  4.243283135627E-01 -4.862358497162E-01
H79  1.785158662981E-01 -2.760717200969E-01 -4.765371376721E-01
H80 -1.785158662981E-01  2.760717200969E-01  4.765371376721E-01
H81  1.303258629088E-01  1.638186046742E-02  4.488551716355E-01
H82 -1.303258629088E-01 -1.638186046742E-02 -4.488551716355E-01
H83  3.061262530330E-01  7.798555658420E-02  3.698994323721E-01
H84 -3.061262530330E-01 -7.798555658420E-02 -3.698994323721E-01
H85  3.501172422186E-01  7.184148186428E-02  4.760126605522E-01
H86 -3.501172422186E-01 -7.184148186428E-02 -4.760126605522E-01
H87 -4.782697426064E-02 -3.612135354997E-01  2.781467300711E-01
H88  4.782697426064E-02  3.612135354997E-01 -2.781467300711E-01
H89 -5.495844391375E-02 -4.855267072213E-01  4.187257444367E-01
H90  5.495844391375E-02  4.855267072213E-01 -4.187257444367E-01
H91 -2.581781780076E-01 -3.459847495588E-01  4.163719902029E-01
H92  2.581781780076E-01  3.459847495588E-01 -4.163719902029E-01
H93 -7.269123781476E-02 -2.711697093078E-01  4.667197479017E-01
H94  7.269123781476E-02  2.711697093078E-01 -4.667197479017E-01
H95 -1.756638502548E-02 -2.767978347197E-02  2.652553739058E-01
H96  1.756638502548E-02  2.767978347197E-02 -2.652553739058E-01
H97 -1.017245396074E-01 -2.786538611033E-03  3.732735389621E-01
H98  1.017245396074E-01  2.786538611033E-03 -3.732735389621E-01
H99 -2.434467818307E-01 -9.471829555551E-02  3.028683392335E-01
H100  2.434467818307E-01  9.471829555551E-02 -3.028683392335E-01


#===END

data_OPT_STEP_61

_symmetry_space_group_name_H-M 'P 1'
_cell_length_a      7.19064249
_cell_length_b      7.59034713
_cell_length_c     16.06397742
_cell_angle_alpha   92.118159
_cell_angle_beta   82.624337
_cell_angle_gamma   87.079976

loop_
_atom_site_label
_atom_site_fract_x
_atom_site_fract_y
_atom_site_fract_z
SI1  2.495359559686E-01 -3.004884733481E-01  3.237131133814E-01
SI2 -2.495359559686E-01  3.004884733481E-01 -3.237131133814E-01
C3  4.522279287943E-01 -6.291279500714E-02  8.146276283143E-02
C4 -4.522279287943E-01  6.291279500714E-02 -8.146276283143E-02
C5  3.206596957549E-01  4.456213138934E-02  4.556939893396E-02
C6 -3.206596957549E-01 -4.456213138934E-02 -4.556939893396E-02
C7  1.416590904264E-01  8.976520566351E-02  8.838095373289E-02
C8 -1.416590904264E-01 -8.976520566351E-02 -8.838095373289E-02
C9  1.109555485063E-02  1.933292556179E-01  5.379550596158E-02
C10 -1.109555485063E-02 -1.933292556179E-01 -5.379550596158E-02
C11 -1.704241174967E-01  2.394856050689E-01  9.799714705120E-02
C12  1.704241174967E-01 -2.394856050689E-01 -9.799714705120E-02
C13 -2.975834694513E-01  3.388910024378E-01  6.199991816228E-02
C14  2.975834694513E-01 -3.388910024378E-01 -6.199991816228E-02
C15 -2.521075116421E-01  3.976289649204E-01 -2.071207788939E-02
C16  2.521075116421E-01 -3.976289649204E-01  2.071207788939E-02
C17 -8.109915893254E-02  3.564829266736E-01 -6.507406970727E-02
C18  8.109915893254E-02 -3.564829266736E-01  6.507406970727E-02
C19  5.730781891731E-02  2.534690325831E-01 -2.972021391348E-02
C20 -5.730781891731E-02 -2.534690325831E-01  2.972021391348E-02
C21  2.333996572377E-01  2.100002362142E-01 -7.277156991702E-02
C22 -2.333996572377E-01 -2.100002362142E-01  7.277156991702E-02
C23  3.681996680139E-01  1.076790488548E-01 -3.740755000261E-02
C24 -3.681996680139E-01 -1.076790488548E-01  3.740755000261E-02
C25  4.002056630066E-01 -1.318534515225E-01  1.608808181147E-01
C26 -4.002056630066E-01  1.318534515225E-01 -1.608808181147E-01
C27  3.484123988237E-01 -1.965559854527E-01  2.274420823586E-01
C28 -3.484123988237E-01  1.965559854527E-01 -2.274420823586E-01
C29  3.248924764008E-01  4.544500581522E-01  3.145914929624E-01
C30 -3.248924764008E-01 -4.544500581522E-01 -3.145914929624E-01
C31  2.299879410050E-01  3.553749380830E-01  2.488203276001E-01
C32 -2.299879410050E-01 -3.553749380830E-01 -2.488203276001E-01
C33 -4.619672071883E-01  4.258562670038E-01  2.964145437144E-01
C34  4.619672071883E-01 -4.258562670038E-01 -2.964145437144E-01
C35  3.521554393839E-01 -1.874229120755E-01  4.138347186367E-01
C36 -3.521554393839E-01  1.874229120755E-01 -4.138347186367E-01
C37  3.258864426931E-01 -2.843872139210E-01  4.954791434118E-01
C38 -3.258864426931E-01  2.843872139210E-01 -4.954791434118E-01
C39  2.814796724145E-01  5.305465889617E-03  4.274528641792E-01
C40 -2.814796724145E-01 -5.305465889617E-03 -4.274528641792E-01
C41 -1.695703531944E-02 -2.751331477997E-01  3.304915242249E-01
C42  1.695703531944E-02  2.751331477997E-01 -3.304915242249E-01
C43 -1.048679518300E-01 -3.485124163540E-01  4.125850382487E-01
C44  1.048679518300E-01  3.485124163540E-01 -4.125850382487E-01
C45 -9.893742191818E-02 -9.056601894541E-02  3.169190031227E-01
C46  9.893742191818E-02  9.056601894541E-02 -3.169190031227E-01
H47  1.050291081664E-01  3.916995101616E-02  1.500844803482E-01
H48 -1.050291081664E-01 -3.916995101616E-02 -1.500844803482E-01
H49 -2.057523179035E-01  1.905103531178E-01  1.603227248588E-01
H50  2.057523179035E-01 -1.905103531178E-01 -1.603227248588E-01
H51 -4.361108785046E-01  3.703266885516E-01  9.597512553802E-02
H52  4.361108785046E-01 -3.703266885516E-01 -9.597512553802E-02
H53 -3.563848278074E-01  4.759639624973E-01 -4.829897748695E-02
H54  3.563848278074E-01 -4.759639624973E-01  4.829897748695E-02
H55 -4.627639970531E-02  4.026941169322E-01 -1.278999092126E-01
H56  4.627639970531E-02 -4.026941169322E-01  1.278999092126E-01
H57  2.697074940291E-01  2.561235989428E-01 -1.356103058489E-01
H58 -2.697074940291E-01 -2.561235989428E-01  1.356103058489E-01
H59  2.789224891686E-01  4.023608556728E-01  3.764262431136E-01
H60 -2.789224891686E-01 -4.023608556728E-01 -3.764262431136E-01
H61  2.594782951290E-01  4.116591246935E-01  1.870422834101E-01
H62 -2.594782951290E-01 -4.116591246935E-01 -1.870422834101E-01
H63  7.724452322162E-02  3.577073845532E-01  2.646892147234E-01
H64 -7.724452322162E-02 -3.577073845532E-01 -2.646892147234E-01
H65  2.819462735780E-01  2.166220297464E-01  2.416987699762E-01
H66 -2.819462735780E-01 -2.166220297464E-01 -2.416987699762E-01
H67 -4.201728646622E-01  2.844167121905E-01  2.911853627515E-01
H68  4.201728646622E-01 -2.844167121905E-01 -2.911853627515E-01
H69 -3.910951647450E-01  4.848701473395E-01  3.458564397645E-01
H70  3.910951647450E-01 -4.848701473395E-01 -3.458564397645E-01
H71 -4.082723465316E-01  4.833210495402E-01  2.371459049295E-01
H72  4.082723465316E-01 -4.833210495402E-01 -2.371459049295E-01
H73 -4.967969138842E-01 -1.902329285175E-01  3.911607350885E-01
H74  4.967969138842E-01  1.902329285175E-01 -3.911607350885E-01
H75  4.058914330420E-01 -2.263603388709E-01 -4.578147511944E-01
H76 -4.058914330420E-01  2.263603388709E-01  4.578147511944E-01
H77  3.706194181167E-01 -4.242768525987E-01  4.862520896696E-01
H78 -3.706194181167E-01  4.242768525987E-01 -4.862520896696E-01
H79  1.787343089858E-01 -2.764639936762E-01 -4.765228383792E-01
H80 -1.787343089858E-01  2.764639936762E-01  4.765228383792E-01
H81  1.303172544675E-01  1.611559347292E-02  4.486706154809E-01
H82 -1.303172544675E-01 -1.611559347292E-02 -4.486706154809E-01
H83  3.064197398381E-01  7.776614751680E-02  3.698219782284E-01
H84 -3.064197398381E-01 -7.776614751680E-02 -3.698219782284E-01
H85  3.501255230123E-01  7.159705885129E-02  4.759774522445E-01
H86 -3.501255230123E-01 -7.159705885129E-02 -4.759774522445E-01
H87 -4.812585388742E-02 -3.622486560691E-01  2.784333907321E-01
H88  4.812585388742E-02  3.622486560691E-01 -2.784333907321E-01
H89 -5.438984549275E-02 -4.848509100377E-01  4.194608684762E-01
H90  5.438984549275E-02  4.848509100377E-01 -4.194608684762E-01
H91 -2.580494982365E-01 -3.462431114971E-01  4.167213935751E-01
H92  2.580494982365E-01  3.462431114971E-01 -4.167213935751E-01
H93 -7.265742722024E-02 -2.699782534263E-01  4.667663149171E-01
H94  7.265742722024E-02  2.699782534263E-01 -4.667663149171E-01
H95 -1.799268670338E-02 -2.912595697664E-02  2.645997347049E-01
H96  1.799268670338E-02  2.912595697664E-02 -2.645997347049E-01
H97 -1.013253827037E-01 -2.981007892539E-03  3.726703080236E-01
H98  1.013253827037E-01  2.981007892539E-03 -3.726703080236E-01
H99 -2.438182090901E-01 -9.578880698483E-02  3.027729824996E-01
H100  2.438182090901E-01  9.578880698483E-02 -3.027729824996E-01


#===END

data_OPT_STEP_62

_symmetry_space_group_name_H-M 'P 1'
_cell_length_a      7.18804189
_cell_length_b      7.59253566
_cell_length_c     16.06314493
_cell_angle_alpha   92.108083
_cell_angle_beta   82.644720
_cell_angle_gamma   87.119603

loop_
_atom_site_label
_atom_site_fract_x
_atom_site_fract_y
_atom_site_fract_z
SI1  2.495127936886E-01 -3.006013140115E-01  3.237187677485E-01
SI2 -2.495127936886E-01  3.006013140115E-01 -3.237187677485E-01
C3  4.522332664482E-01 -6.286915512165E-02  8.146954829320E-02
C4 -4.522332664482E-01  6.286915512165E-02 -8.146954829320E-02
C5  3.207025168589E-01  4.460671864835E-02  4.557684232027E-02
C6 -3.207025168589E-01 -4.460671864835E-02 -4.557684232027E-02
C7  1.417450765258E-01  8.986540405561E-02  8.839733571286E-02
C8 -1.417450765258E-01 -8.986540405561E-02 -8.839733571286E-02
C9  1.118711464673E-02  1.934299340852E-01  5.381858054774E-02
C10 -1.118711464673E-02 -1.934299340852E-01 -5.381858054774E-02
C11 -1.703233928579E-01  2.395660511022E-01  9.803329123805E-02
C12  1.703233928579E-01 -2.395660511022E-01 -9.803329123805E-02
C13 -2.975404305193E-01  3.387597087319E-01  6.198269792601E-02
C14  2.975404305193E-01 -3.387597087319E-01 -6.198269792601E-02
C15 -2.521085738210E-01  3.974427558729E-01 -2.075531804717E-02
C16  2.521085738210E-01 -3.974427558729E-01  2.075531804717E-02
C17 -8.109299674673E-02  3.564052605273E-01 -6.510409593179E-02
C18  8.109299674673E-02 -3.564052605273E-01  6.510409593179E-02
C19  5.735416291144E-02  2.534776104873E-01 -2.973092011879E-02
C20 -5.735416291144E-02 -2.534776104873E-01  2.973092011879E-02
C21  2.334253930041E-01  2.099738761574E-01 -7.279603132192E-02
C22 -2.334253930041E-01 -2.099738761574E-01  7.279603132192E-02
C23  3.682267460135E-01  1.076826940935E-01 -3.741648117995E-02
C24 -3.682267460135E-01 -1.076826940935E-01  3.741648117995E-02
C25  4.002166895854E-01 -1.317721581219E-01  1.609034770471E-01
C26 -4.002166895854E-01  1.317721581219E-01 -1.609034770471E-01
C27  3.483317343607E-01 -1.964505399426E-01  2.274674238818E-01
C28 -3.483317343607E-01  1.964505399426E-01 -2.274674238818E-01
C29  3.250643633591E-01  4.545100897450E-01  3.145680606254E-01
C30 -3.250643633591E-01 -4.545100897450E-01 -3.145680606254E-01
C31  2.300256331717E-01  3.554203497133E-01  2.488133973911E-01
C32 -2.300256331717E-01 -3.554203497133E-01 -2.488133973911E-01
C33 -4.617280700318E-01  4.262454518750E-01  2.963125326264E-01
C34  4.617280700318E-01 -4.262454518750E-01 -2.963125326264E-01
C35  3.521219724248E-01 -1.875386865362E-01  4.138885973028E-01
C36 -3.521219724248E-01  1.875386865362E-01 -4.138885973028E-01
C37  3.259305834817E-01 -2.844800725056E-01  4.955528819149E-01
C38 -3.259305834817E-01  2.844800725056E-01 -4.955528819149E-01
C39  2.814571255868E-01  5.089783057959E-03  4.274720371531E-01
C40 -2.814571255868E-01 -5.089783057959E-03 -4.274720371531E-01
C41 -1.709788920272E-02 -2.755925977911E-01  3.305367892154E-01
C42  1.709788920272E-02  2.755925977911E-01 -3.305367892154E-01
C43 -1.046710954519E-01 -3.482279798373E-01  4.128688594922E-01
C44  1.046710954519E-01  3.482279798373E-01 -4.128688594922E-01
C45 -9.923713611894E-02 -9.139069229525E-02  3.165968780763E-01
C46  9.923713611894E-02  9.139069229525E-02 -3.165968780763E-01
H47  1.051750484759E-01  3.944088651984E-02  1.501502581811E-01
H48 -1.051750484759E-01 -3.944088651984E-02 -1.501502581811E-01
H49 -2.056330818840E-01  1.906011288696E-01  1.603649284475E-01
H50  2.056330818840E-01 -1.906011288696E-01 -1.603649284475E-01
H51 -4.360869005588E-01  3.701350533870E-01  9.595339454182E-02
H52  4.360869005588E-01 -3.701350533870E-01 -9.595339454182E-02
H53 -3.564735190448E-01  4.756696998503E-01 -4.833162525518E-02
H54  3.564735190448E-01 -4.756696998503E-01  4.833162525518E-02
H55 -4.629260850982E-02  4.025534285265E-01 -1.279480074822E-01
H56  4.629260850982E-02 -4.025534285265E-01  1.279480074822E-01
H57  2.697146493055E-01  2.560791619726E-01 -1.356360765016E-01
H58 -2.697146493055E-01 -2.560791619726E-01  1.356360765016E-01
H59  2.792690132595E-01  4.023239098690E-01  3.764056627910E-01
H60 -2.792690132595E-01 -4.023239098690E-01 -3.764056627910E-01
H61  2.591869426401E-01  4.119568551682E-01  1.870617238053E-01
H62 -2.591869426401E-01 -4.119568551682E-01 -1.870617238053E-01
H63  7.728531525695E-02  3.574067945667E-01  2.647873165350E-01
H64 -7.728531525695E-02 -3.574067945667E-01 -2.647873165350E-01
H65  2.822080949480E-01  2.168031004513E-01  2.415708951051E-01
H66 -2.822080949480E-01 -2.168031004513E-01 -2.415708951051E-01
H67 -4.198055181295E-01  2.848962960049E-01  2.911611917026E-01
H68  4.198055181295E-01 -2.848962960049E-01 -2.911611917026E-01
H69 -3.906994899796E-01  4.855100287646E-01  3.456719759029E-01
H70  3.906994899796E-01 -4.855100287646E-01 -3.456719759029E-01
H71 -4.082676748591E-01  4.836246498870E-01  2.369779936375E-01
H72  4.082676748591E-01 -4.836246498870E-01 -2.369779936375E-01
H73 -4.967684304223E-01 -1.902815352939E-01  3.912235886508E-01
H74  4.967684304223E-01  1.902815352939E-01 -3.912235886508E-01
H75  4.058817063365E-01 -2.262860773772E-01 -4.577352487484E-01
H76 -4.058817063365E-01  2.262860773772E-01  4.577352487484E-01
H77  3.708961613093E-01 -4.242213635861E-01  4.863516934063E-01
H78 -3.708961613093E-01  4.242213635861E-01 -4.863516934063E-01
H79  1.787613917781E-01 -2.768377308293E-01 -4.764695336947E-01
H80 -1.787613917781E-01  2.768377308293E-01  4.764695336947E-01
H81  1.301904807634E-01  1.585069770165E-02  4.485381984555E-01
H82 -1.301904807634E-01 -1.585069770165E-02 -4.485381984555E-01
H83  3.066615022418E-01  7.760660714314E-02  3.698669219605E-01
H84 -3.066615022418E-01 -7.760660714314E-02 -3.698669219605E-01
H85  3.498953585597E-01  7.133267287250E-02  4.761053546675E-01
H86 -3.498953585597E-01 -7.133267287250E-02 -4.761053546675E-01
H87 -4.846510332754E-02 -3.632417474353E-01  2.787166395767E-01
H88  4.846510332754E-02  3.632417474353E-01 -2.787166395767E-01
H89 -5.367088286487E-02 -4.841570436158E-01  4.201529232527E-01
H90  5.367088286487E-02  4.841570436158E-01 -4.201529232527E-01
H91 -2.578893701432E-01 -3.466330130242E-01  4.170666528014E-01
H92  2.578893701432E-01  3.466330130242E-01 -4.170666528014E-01
H93 -7.264083011558E-02 -2.687789090940E-01  4.667846491133E-01
H94  7.264083011558E-02  2.687789090940E-01 -4.667846491133E-01
H95 -1.875434178583E-02 -3.064385619004E-02  2.639196563544E-01
H96  1.875434178583E-02  3.064385619004E-02 -2.639196563544E-01
H97 -1.009535375017E-01 -3.121179148742E-03  3.720604881983E-01
H98  1.009535375017E-01  3.121179148742E-03 -3.720604881983E-01
H99 -2.444211646800E-01 -9.690939132221E-02  3.027796922178E-01
H100  2.444211646800E-01  9.690939132221E-02 -3.027796922178E-01


#===END

data_OPT_STEP_63

_symmetry_space_group_name_H-M 'P 1'
_cell_length_a      7.18619432
_cell_length_b      7.59482478
_cell_length_c     16.06258402
_cell_angle_alpha   92.100841
_cell_angle_beta   82.668859
_cell_angle_gamma   87.160301

loop_
_atom_site_label
_atom_site_fract_x
_atom_site_fract_y
_atom_site_fract_z
SI1  2.495372973452E-01 -3.007660933517E-01  3.237375918327E-01
SI2 -2.495372973452E-01  3.007660933517E-01 -3.237375918327E-01
C3  4.522510022137E-01 -6.282339397247E-02  8.150649978325E-02
C4 -4.522510022137E-01  6.282339397247E-02 -8.150649978325E-02
C5  3.207475099336E-01  4.464729492009E-02  4.558157263542E-02
C6 -3.207475099336E-01 -4.464729492009E-02 -4.558157263542E-02
C7  1.418387071593E-01  8.996887837834E-02  8.841355720321E-02
C8 -1.418387071593E-01 -8.996887837834E-02 -8.841355720321E-02
C9  1.128614994319E-02  1.935197958912E-01  5.384367557246E-02
C10 -1.128614994319E-02 -1.935197958912E-01 -5.384367557246E-02
C11 -1.702176918696E-01  2.395811683924E-01  9.805453425692E-02
C12  1.702176918696E-01 -2.395811683924E-01 -9.805453425692E-02
C13 -2.974775990984E-01  3.386092888285E-01  6.196552893055E-02
C14  2.974775990984E-01 -3.386092888285E-01 -6.196552893055E-02
C15 -2.520775071348E-01  3.973197390000E-01 -2.076325400004E-02
C16  2.520775071348E-01 -3.973197390000E-01  2.076325400004E-02
C17 -8.106593469267E-02  3.564130503196E-01 -6.508966813722E-02
C18  8.106593469267E-02 -3.564130503196E-01  6.508966813722E-02
C19  5.740161985506E-02  2.535201193271E-01 -2.971533704004E-02
C20 -5.740161985506E-02 -2.535201193271E-01  2.971533704004E-02
C21  2.334325023354E-01  2.099864571087E-01 -7.279338950965E-02
C22 -2.334325023354E-01 -2.099864571087E-01  7.279338950965E-02
C23  3.682415897723E-01  1.077130620779E-01 -3.741521212675E-02
C24 -3.682415897723E-01 -1.077130620779E-01  3.741521212675E-02
C25  4.002338122852E-01 -1.317182123313E-01  1.609503939361E-01
C26 -4.002338122852E-01  1.317182123313E-01 -1.609503939361E-01
C27  3.482857413766E-01 -1.964004670389E-01  2.275142492271E-01
C28 -3.482857413766E-01  1.964004670389E-01 -2.275142492271E-01
C29  3.252973008335E-01  4.545091002762E-01  3.145606091587E-01
C30 -3.252973008335E-01 -4.545091002762E-01 -3.145606091587E-01
C31  2.300809225573E-01  3.552887206806E-01  2.488728632635E-01
C32 -2.300809225573E-01 -3.552887206806E-01 -2.488728632635E-01
C33 -4.614479769193E-01  4.265997466066E-01  2.962027536972E-01
C34  4.614479769193E-01 -4.265997466066E-01 -2.962027536972E-01
C35  3.521866002330E-01 -1.876509100672E-01  4.139318610847E-01
C36 -3.521866002330E-01  1.876509100672E-01 -4.139318610847E-01
C37  3.260329406959E-01 -2.845100697577E-01  4.956211054278E-01
C38 -3.260329406959E-01  2.845100697577E-01 -4.956211054278E-01
C39  2.815293650055E-01  4.894162317566E-03  4.274548282125E-01
C40 -2.815293650055E-01 -4.894162317566E-03 -4.274548282125E-01
C41 -1.715316155392E-02 -2.761108552882E-01  3.305891873181E-01
C42  1.715316155392E-02  2.761108552882E-01 -3.305891873181E-01
C43 -1.044286029929E-01 -3.480000412659E-01  4.131567278190E-01
C44  1.044286029929E-01  3.480000412659E-01 -4.131567278190E-01
C45 -9.941561560329E-02 -9.226240384088E-02  3.162533202245E-01
C46  9.941561560329E-02  9.226240384088E-02 -3.162533202245E-01
H47  1.053273212284E-01  3.967940503558E-02  1.502012526078E-01
H48 -1.053273212284E-01 -3.967940503558E-02 -1.502012526078E-01
H49 -2.055062185326E-01  1.905965776531E-01  1.603831036583E-01
H50  2.055062185326E-01 -1.905965776531E-01 -1.603831036583E-01
H51 -4.360566335107E-01  3.698796365539E-01  9.588893178232E-02
H52  4.360566335107E-01 -3.698796365539E-01 -9.588893178232E-02
H53 -3.565202458456E-01  4.754650662238E-01 -4.832502119162E-02
H54  3.565202458456E-01 -4.754650662238E-01  4.832502119162E-02
H55 -4.628592445780E-02  4.025383851257E-01 -1.279418230260E-01
H56  4.628592445780E-02 -4.025383851257E-01  1.279418230260E-01
H57  2.696928052249E-01  2.560927155164E-01 -1.356272275414E-01
H58 -2.696928052249E-01 -2.560927155164E-01  1.356272275414E-01
H59  2.797551143687E-01  4.022720626989E-01  3.764167587658E-01
H60 -2.797551143687E-01 -4.022720626989E-01 -3.764167587658E-01
H61  2.589756594886E-01  4.118725704857E-01  1.871070395953E-01
H62 -2.589756594886E-01 -4.118725704857E-01 -1.871070395953E-01
H63  7.735008591015E-02  3.570195811536E-01  2.649393385179E-01
H64 -7.735008591015E-02 -3.570195811536E-01 -2.649393385179E-01
H65  2.823743960131E-01  2.167726546862E-01  2.416061445465E-01
H66 -2.823743960131E-01 -2.167726546862E-01 -2.416061445465E-01
H67 -4.193861573991E-01  2.853575442420E-01  2.910857773258E-01
H68  4.193861573991E-01 -2.853575442420E-01 -2.910857773258E-01
H69 -3.902565931871E-01  4.860469913507E-01  3.454853730269E-01
H70  3.902565931871E-01 -4.860469913507E-01 -3.454853730269E-01
H71 -4.082521794576E-01  4.839605877853E-01  2.368220375113E-01
H72  4.082521794576E-01 -4.839605877853E-01 -2.368220375113E-01
H73 -4.966755312214E-01 -1.903507562506E-01  3.912788474998E-01
H74  4.966755312214E-01  1.903507562506E-01 -3.912788474998E-01
H75  4.059598152169E-01 -2.261874562407E-01 -4.576674584491E-01
H76 -4.059598152169E-01  2.261874562407E-01  4.576674584491E-01
H77  3.710980636248E-01 -4.241523842093E-01  4.864731866506E-01
H78 -3.710980636248E-01  4.241523842093E-01 -4.864731866506E-01
H79  1.788548235250E-01 -2.770545724228E-01 -4.764266308856E-01
H80 -1.788548235250E-01  2.770545724228E-01  4.764266308856E-01
H81  1.301876305589E-01  1.555255022292E-02  4.483827796846E-01
H82 -1.301876305589E-01 -1.555255022292E-02 -4.483827796846E-01
H83  3.069184378256E-01  7.737427864803E-02  3.698618533043E-01
H84 -3.069184378256E-01 -7.737427864803E-02 -3.698618533043E-01
H85  3.498041111709E-01  7.117356551345E-02  4.761582749688E-01
H86 -3.498041111709E-01 -7.117356551345E-02 -4.761582749688E-01
H87 -4.866745027090E-02 -3.643165247104E-01  2.789915432249E-01
H88  4.866745027090E-02  3.643165247104E-01 -2.789915432249E-01
H89 -5.301657712537E-02 -4.835594053653E-01  4.208372235239E-01
H90  5.301657712537E-02  4.835594053653E-01 -4.208372235239E-01
H91 -2.576579799780E-01 -3.469982754876E-01  4.174017712128E-01
H92  2.576579799780E-01  3.469982754876E-01 -4.174017712128E-01
H93 -7.255358353116E-02 -2.676911115048E-01  4.668308928693E-01
H94  7.255358353116E-02  2.676911115048E-01 -4.668308928693E-01
H95 -1.944019228605E-02 -3.228823926448E-02  2.631910776083E-01
H96  1.944019228605E-02  3.228823926448E-02 -2.631910776083E-01
H97 -1.003820672782E-01 -3.243985976657E-03  3.714102769535E-01
H98  1.003820672782E-01  3.243985976657E-03 -3.714102769535E-01
H99 -2.449010112679E-01 -9.804354835453E-02  3.027898987961E-01
H100  2.449010112679E-01  9.804354835453E-02 -3.027898987961E-01


#===END

data_OPT_STEP_64

_symmetry_space_group_name_H-M 'P 1'
_cell_length_a      7.18414945
_cell_length_b      7.59720202
_cell_length_c     16.06027546
_cell_angle_alpha   92.097178
_cell_angle_beta   82.692624
_cell_angle_gamma   87.195369

loop_
_atom_site_label
_atom_site_fract_x
_atom_site_fract_y
_atom_site_fract_z
SI1  2.495368742931E-01 -3.009285301278E-01  3.237386236789E-01
SI2 -2.495368742931E-01  3.009285301278E-01 -3.237386236789E-01
C3  4.522614405870E-01 -6.279835075363E-02  8.153369707906E-02
C4 -4.522614405870E-01  6.279835075363E-02 -8.153369707906E-02
C5  3.208123120175E-01  4.469027409414E-02  4.558832801625E-02
C6 -3.208123120175E-01 -4.469027409414E-02 -4.558832801625E-02
C7  1.419544899711E-01  9.005801604535E-02  8.843195791667E-02
C8 -1.419544899711E-01 -9.005801604535E-02 -8.843195791667E-02
C9  1.139187874911E-02  1.935657507946E-01  5.385169890181E-02
C10 -1.139187874911E-02 -1.935657507946E-01 -5.385169890181E-02
C11 -1.700993531447E-01  2.395872015148E-01  9.807030879547E-02
C12  1.700993531447E-01 -2.395872015148E-01 -9.807030879547E-02
C13 -2.973976569545E-01  3.385296197063E-01  6.196578100848E-02
C14  2.973976569545E-01 -3.385296197063E-01 -6.196578100848E-02
C15 -2.520351492448E-01  3.972125899872E-01 -2.078127096343E-02
C16  2.520351492448E-01 -3.972125899872E-01  2.078127096343E-02
C17 -8.102888055057E-02  3.563771615127E-01 -6.510919189789E-02
C18  8.102888055057E-02 -3.563771615127E-01  6.510919189789E-02
C19  5.746380329719E-02  2.535319529794E-01 -2.972459149979E-02
C20 -5.746380329719E-02 -2.535319529794E-01  2.972459149979E-02
C21  2.334730269240E-01  2.099928788431E-01 -7.280537471671E-02
C22 -2.334730269240E-01 -2.099928788431E-01  7.280537471671E-02
C23  3.682740467123E-01  1.077218867260E-01 -3.742199604352E-02
C24 -3.682740467123E-01 -1.077218867260E-01  3.742199604352E-02
C25  4.002239355232E-01 -1.317006059585E-01  1.609796081243E-01
C26 -4.002239355232E-01  1.317006059585E-01 -1.609796081243E-01
C27  3.482242465905E-01 -1.964197736058E-01  2.275369571065E-01
C28 -3.482242465905E-01  1.964197736058E-01 -2.275369571065E-01
C29  3.255279418104E-01  4.545194698374E-01  3.145537223742E-01
C30 -3.255279418104E-01 -4.545194698374E-01 -3.145537223742E-01
C31  2.301814714609E-01  3.550856394678E-01  2.489394457215E-01
C32 -2.301814714609E-01 -3.550856394678E-01 -2.489394457215E-01
C33 -4.611693452289E-01  4.269715052469E-01  2.961041845589E-01
C34  4.611693452289E-01 -4.269715052469E-01 -2.961041845589E-01
C35  3.522422950496E-01 -1.877170021418E-01  4.139526282891E-01
C36 -3.522422950496E-01  1.877170021418E-01 -4.139526282891E-01
C37  3.262014390795E-01 -2.845044775188E-01  4.956669597029E-01
C38 -3.262014390795E-01  2.845044775188E-01 -4.956669597029E-01
C39  2.814640332131E-01  4.703883487126E-03  4.274414229327E-01
C40 -2.814640332131E-01 -4.703883487126E-03 -4.274414229327E-01
C41 -1.724155960496E-02 -2.766191311732E-01  3.306321167598E-01
C42  1.724155960496E-02  2.766191311732E-01 -3.306321167598E-01
C43 -1.042146735579E-01 -3.477604710347E-01  4.134353117213E-01
C44  1.042146735579E-01  3.477604710347E-01 -4.134353117213E-01
C45 -9.963362949429E-02 -9.312889055548E-02  3.159034444227E-01
C46  9.963362949429E-02  9.312889055548E-02 -3.159034444227E-01
H47  1.055107412696E-01  3.987423456391E-02  1.502500951659E-01
H48 -1.055107412696E-01 -3.987423456391E-02 -1.502500951659E-01
H49 -2.053548128067E-01  1.906232959312E-01  1.604132949269E-01
H50  2.053548128067E-01 -1.906232959312E-01 -1.604132949269E-01
H51 -4.360029407016E-01  3.697569078732E-01  9.587446060276E-02
H52  4.360029407016E-01 -3.697569078732E-01 -9.587446060276E-02
H53 -3.565439494222E-01  4.752705571059E-01 -4.834288114379E-02
H54  3.565439494222E-01 -4.752705571059E-01  4.834288114379E-02
H55 -4.629194123061E-02  4.024559955451E-01 -1.279814020937E-01
H56  4.629194123061E-02 -4.024559955451E-01  1.279814020937E-01
H57  2.697033653343E-01  2.560436037469E-01 -1.356584888252E-01
H58 -2.697033653343E-01 -2.560436037469E-01  1.356584888252E-01
H59  2.802547029955E-01  4.022837113745E-01  3.764453699626E-01
H60 -2.802547029955E-01 -4.022837113745E-01 -3.764453699626E-01
H61  2.588119528467E-01  4.116007288642E-01  1.871381070375E-01
H62 -2.588119528467E-01 -4.116007288642E-01 -1.871381070375E-01
H63  7.744874407877E-02  3.565564645313E-01  2.650745664656E-01
H64 -7.744874407877E-02 -3.565564645313E-01 -2.650745664656E-01
H65  2.826229115455E-01  2.166862088115E-01  2.416968443863E-01
H66 -2.826229115455E-01 -2.166862088115E-01 -2.416968443863E-01
H67 -4.189288775155E-01  2.858367524897E-01  2.910377387122E-01
H68  4.189288775155E-01 -2.858367524897E-01 -2.910377387122E-01
H69 -3.898552725599E-01  4.866533829299E-01  3.453183258391E-01
H70  3.898552725599E-01 -4.866533829299E-01 -3.453183258391E-01
H71 -4.082378221885E-01  4.842849788085E-01  2.366674484461E-01
H72  4.082378221885E-01 -4.842849788085E-01 -2.366674484461E-01
H73 -4.966109568079E-01 -1.902870462824E-01  3.913091223717E-01
H74  4.966109568079E-01  1.902870462824E-01 -3.913091223717E-01
H75  4.061256437530E-01 -2.260543557482E-01 -4.576220299312E-01
H76 -4.061256437530E-01  2.260543557482E-01  4.576220299312E-01
H77  3.713743990261E-01 -4.240689885843E-01  4.865627158945E-01
H78 -3.713743990261E-01  4.240689885843E-01 -4.865627158945E-01
H79  1.790145542870E-01 -2.772338661187E-01 -4.763917030969E-01
H80 -1.790145542870E-01  2.772338661187E-01  4.763917030969E-01
H81  1.300827005597E-01  1.515344423546E-02  4.482872714510E-01
H82 -1.300827005597E-01 -1.515344423546E-02 -4.482872714510E-01
H83  3.068937532579E-01  7.719130011270E-02  3.698515910062E-01
H84 -3.068937532579E-01 -7.719130011270E-02 -3.698515910062E-01
H85  3.496240004571E-01  7.103664616753E-02  4.761950556336E-01
H86 -3.496240004571E-01 -7.103664616753E-02 -4.761950556336E-01
H87 -4.890243633013E-02 -3.653539827556E-01  2.792475217641E-01
H88  4.890243633013E-02  3.653539827556E-01 -2.792475217641E-01
H89 -5.238750580449E-02 -4.829747041749E-01  4.214947192721E-01
H90  5.238750580449E-02  4.829747041749E-01 -4.214947192721E-01
H91 -2.574630635471E-01 -3.473270486926E-01  4.177270194331E-01
H92  2.574630635471E-01  3.473270486926E-01 -4.177270194331E-01
H93 -7.247771533390E-02 -2.666405398814E-01  4.668906569682E-01
H94  7.247771533390E-02  2.666405398814E-01 -4.668906569682E-01
H95 -2.018818566252E-02 -3.395162355209E-02  2.624473867134E-01
H96  2.018818566252E-02  3.395162355209E-02 -2.624473867134E-01
H97 -9.980594886749E-02 -3.380656194475E-03  3.707459515402E-01
H98  9.980594886749E-02  3.380656194475E-03 -3.707459515402E-01
H99 -2.454270954673E-01 -9.914953911439E-02  3.028097434642E-01
H100  2.454270954673E-01  9.914953911439E-02 -3.028097434642E-01


#===END

data_OPT_STEP_65

_symmetry_space_group_name_H-M 'P 1'
_cell_length_a      7.18288951
_cell_length_b      7.59915306
_cell_length_c     16.05703985
_cell_angle_alpha   92.097567
_cell_angle_beta   82.715779
_cell_angle_gamma   87.227433

loop_
_atom_site_label
_atom_site_fract_x
_atom_site_fract_y
_atom_site_fract_z
SI1  2.494635209839E-01 -3.010641717563E-01  3.237304131887E-01
SI2 -2.494635209839E-01  3.010641717563E-01 -3.237304131887E-01
C3  4.522709993576E-01 -6.277086810932E-02  8.156581747499E-02
C4 -4.522709993576E-01  6.277086810932E-02 -8.156581747499E-02
C5  3.208989693911E-01  4.475784599591E-02  4.559877653001E-02
C6 -3.208989693911E-01 -4.475784599591E-02 -4.559877653001E-02
C7  1.421050577916E-01  9.019553297200E-02  8.845906432960E-02
C8 -1.421050577916E-01 -9.019553297200E-02 -8.845906432960E-02
C9  1.153465761620E-02  1.936130370842E-01  5.384806849735E-02
C10 -1.153465761620E-02 -1.936130370842E-01 -5.384806849735E-02
C11 -1.699271489823E-01  2.395917159789E-01  9.807318597285E-02
C12  1.699271489823E-01 -2.395917159789E-01 -9.807318597285E-02
C13 -2.972371597864E-01  3.384875160218E-01  6.196095062180E-02
C14  2.972371597864E-01 -3.384875160218E-01 -6.196095062180E-02
C15 -2.519034908753E-01  3.971554990954E-01 -2.080431025782E-02
C16  2.519034908753E-01 -3.971554990954E-01  2.080431025782E-02
C17 -8.092728100930E-02  3.563514973658E-01 -6.514772935288E-02
C18  8.092728100930E-02 -3.563514973658E-01  6.514772935288E-02
C19  5.756631686940E-02  2.535377873820E-01 -2.975037086210E-02
C20 -5.756631686940E-02 -2.535377873820E-01  2.975037086210E-02
C21  2.335460603794E-01  2.100037003744E-01 -7.282343232865E-02
C22 -2.335460603794E-01 -2.100037003744E-01  7.282343232865E-02
C23  3.683233176513E-01  1.077262766055E-01 -3.743293621374E-02
C24 -3.683233176513E-01 -1.077262766055E-01  3.743293621374E-02
C25  4.001960915448E-01 -1.316762927298E-01  1.610117749760E-01
C26 -4.001960915448E-01  1.316762927298E-01 -1.610117749760E-01
C27  3.481726963129E-01 -1.963830226302E-01  2.275754363164E-01
C28 -3.481726963129E-01  1.963830226302E-01 -2.275754363164E-01
C29  3.256659883926E-01  4.545455293547E-01  3.145344723488E-01
C30 -3.256659883926E-01 -4.545455293547E-01 -3.145344723488E-01
C31  2.302463180752E-01  3.548147546688E-01  2.490177986813E-01
C32 -2.302463180752E-01 -3.548147546688E-01 -2.490177986813E-01
C33 -4.610135015052E-01  4.273228759061E-01  2.960115646772E-01
C34  4.610135015052E-01 -4.273228759061E-01 -2.960115646772E-01
C35  3.522453315092E-01 -1.877811205758E-01  4.139767710107E-01
C36 -3.522453315092E-01  1.877811205758E-01 -4.139767710107E-01
C37  3.261496811009E-01 -2.844396322793E-01  4.957333764556E-01
C38 -3.261496811009E-01  2.844396322793E-01 -4.957333764556E-01
C39  2.814553149218E-01  4.571961340044E-03  4.274072961793E-01
C40 -2.814553149218E-01 -4.571961340044E-03 -4.274072961793E-01
C41 -1.736600766647E-02 -2.771146128235E-01  3.306476183347E-01
C42  1.736600766647E-02  2.771146128235E-01 -3.306476183347E-01
C43 -1.040697566926E-01 -3.476134566804E-01  4.136310089899E-01
C44  1.040697566926E-01  3.476134566804E-01 -4.136310089899E-01
C45 -9.988006529326E-02 -9.398789300145E-02  3.155647940826E-01
C46  9.988006529326E-02  9.398789300145E-02 -3.155647940826E-01
H47  1.057460412458E-01  4.013674002854E-02  1.503111207582E-01
H48 -1.057460412458E-01 -4.013674002854E-02 -1.503111207582E-01
H49 -2.051417076897E-01  1.906629000119E-01  1.604376215988E-01
H50  2.051417076897E-01 -1.906629000119E-01 -1.604376215988E-01
H51 -4.358641345627E-01  3.696897946284E-01  9.583791259132E-02
H52  4.358641345627E-01 -3.696897946284E-01 -9.583791259132E-02
H53 -3.564545042690E-01  4.751765972029E-01 -4.835765092393E-02
H54  3.564545042690E-01 -4.751765972029E-01  4.835765092393E-02
H55 -4.624402741445E-02  4.024103164865E-01 -1.280362347060E-01
H56  4.624402741445E-02 -4.024103164865E-01  1.280362347060E-01
H57  2.697446641335E-01  2.559756913411E-01 -1.357038580052E-01
H58 -2.697446641335E-01 -2.559756913411E-01  1.357038580052E-01
H59  2.806610748341E-01  4.023802988530E-01  3.764756064553E-01
H60 -2.806610748341E-01 -4.023802988530E-01 -3.764756064553E-01
H61  2.587825861557E-01  4.110046601882E-01  1.871425743400E-01
H62 -2.587825861557E-01 -4.110046601882E-01 -1.871425743400E-01
H63  7.750634268089E-02  3.561854025868E-01  2.651591276178E-01
H64 -7.750634268089E-02 -3.561854025868E-01 -2.651591276178E-01
H65  2.827031508110E-01  2.165004071632E-01  2.419194266616E-01
H66 -2.827031508110E-01 -2.165004071632E-01 -2.419194266616E-01
H67 -4.186000186078E-01  2.862895941931E-01  2.909792834593E-01
H68  4.186000186078E-01 -2.862895941931E-01 -2.909792834593E-01
H69 -3.896406452887E-01  4.872057354408E-01  3.451816198345E-01
H70  3.896406452887E-01 -4.872057354408E-01 -3.451816198345E-01
H71 -4.083000858536E-01  4.846037626174E-01  2.365322673808E-01
H72  4.083000858536E-01 -4.846037626174E-01 -2.365322673808E-01
H73 -4.966063705106E-01 -1.902998264728E-01  3.913552216682E-01
H74  4.966063705106E-01  1.902998264728E-01 -3.913552216682E-01
H75  4.061297578893E-01 -2.259866492971E-01 -4.575486632414E-01
H76 -4.061297578893E-01  2.259866492971E-01  4.575486632414E-01
H77  3.711425205034E-01 -4.240242570722E-01  4.867149397798E-01
H78 -3.711425205034E-01  4.240242570722E-01 -4.867149397798E-01
H79  1.789486479886E-01 -2.771186875587E-01 -4.763427682751E-01
H80 -1.789486479886E-01  2.771186875587E-01  4.763427682751E-01
H81  1.300679262342E-01  1.486421398054E-02  4.481705589290E-01
H82 -1.300679262342E-01 -1.486421398054E-02 -4.481705589290E-01
H83  3.069660561216E-01  7.698298346626E-02  3.698008305055E-01
H84 -3.069660561216E-01 -7.698298346626E-02 -3.698008305055E-01
H85  3.495529216315E-01  7.095582824967E-02  4.761916409786E-01
H86 -3.495529216315E-01 -7.095582824967E-02 -4.761916409786E-01
H87 -4.909818479684E-02 -3.662933925787E-01  2.794431392407E-01
H88  4.909818479684E-02  3.662933925787E-01 -2.794431392407E-01
H89 -5.182113401452E-02 -4.824742892602E-01  4.220001196364E-01
H90  5.182113401452E-02  4.824742892602E-01 -4.220001196364E-01
H91 -2.573097059791E-01 -3.477671546570E-01  4.179569739020E-01
H92  2.573097059791E-01  3.477671546570E-01 -4.179569739020E-01
H93 -7.253732932014E-02 -2.658444197530E-01  4.669091797812E-01
H94  7.253732932014E-02  2.658444197530E-01 -4.669091797812E-01
H95 -2.124716156349E-02 -3.583670977588E-02  2.616016569276E-01
H96  2.124716156349E-02  3.583670977588E-02 -2.616016569276E-01
H97 -9.881241822952E-02 -3.434989195159E-03  3.700175824092E-01
H98  9.881241822952E-02  3.434989195159E-03 -3.700175824092E-01
H99 -2.461136530830E-01 -1.001203338617E-01  3.030508671656E-01
H100  2.461136530830E-01  1.001203338617E-01 -3.030508671656E-01


#===END

data_OPT_STEP_66

_symmetry_space_group_name_H-M 'P 1'
_cell_length_a      7.18074615
_cell_length_b      7.60131649
_cell_length_c     16.05365852
_cell_angle_alpha   92.097592
_cell_angle_beta   82.743350
_cell_angle_gamma   87.250461

loop_
_atom_site_label
_atom_site_fract_x
_atom_site_fract_y
_atom_site_fract_z
SI1  2.494840035291E-01 -3.012353043575E-01  3.237083254936E-01
SI2 -2.494840035291E-01  3.012353043575E-01 -3.237083254936E-01
C3  4.522930838486E-01 -6.277651114529E-02  8.156830533805E-02
C4 -4.522930838486E-01  6.277651114529E-02 -8.156830533805E-02
C5  3.209427240433E-01  4.478705876741E-02  4.560491491965E-02
C6 -3.209427240433E-01 -4.478705876741E-02 -4.560491491965E-02
C7  1.421901975659E-01  9.027830036658E-02  8.847525387024E-02
C8 -1.421901975659E-01 -9.027830036658E-02 -8.847525387024E-02
C9  1.158794831278E-02  1.936280268484E-01  5.384120608975E-02
C10 -1.158794831278E-02 -1.936280268484E-01 -5.384120608975E-02
C11 -1.698434502699E-01  2.396129223957E-01  9.807545238921E-02
C12  1.698434502699E-01 -2.396129223957E-01 -9.807545238921E-02
C13 -2.971765721739E-01  3.385187239504E-01  6.196825255423E-02
C14  2.971765721739E-01 -3.385187239504E-01 -6.196825255423E-02
C15 -2.518925007588E-01  3.971406719932E-01 -2.081935363308E-02
C16  2.518925007588E-01 -3.971406719932E-01  2.081935363308E-02
C17 -8.094233478600E-02  3.563048999436E-01 -6.518198378866E-02
C18  8.094233478600E-02 -3.563048999436E-01  6.518198378866E-02
C19  5.757764511151E-02  2.535327981067E-01 -2.977131980766E-02
C20 -5.757764511151E-02 -2.535327981067E-01  2.977131980766E-02
C21  2.335506151663E-01  2.100213817751E-01 -7.283641342466E-02
C22 -2.335506151663E-01 -2.100213817751E-01  7.283641342466E-02
C23  3.683294516902E-01  1.077231015441E-01 -3.744344351623E-02
C24 -3.683294516902E-01 -1.077231015441E-01  3.744344351623E-02
C25  4.001976086484E-01 -1.317313958506E-01  1.610080712078E-01
C26 -4.001976086484E-01  1.317313958506E-01 -1.610080712078E-01
C27  3.481888898275E-01 -1.964939965730E-01  2.275633604647E-01
C28 -3.481888898275E-01  1.964939965730E-01 -2.275633604647E-01
C29  3.258718496326E-01  4.545042179549E-01  3.145499356612E-01
C30 -3.258718496326E-01 -4.545042179549E-01 -3.145499356612E-01
C31  2.303826525976E-01  3.545051188372E-01  2.491016736984E-01
C32 -2.303826525976E-01 -3.545051188372E-01 -2.491016736984E-01
C33 -4.607646493632E-01  4.275299961949E-01  2.959838729431E-01
C34  4.607646493632E-01 -4.275299961949E-01 -2.959838729431E-01
C35  3.522750306361E-01 -1.878692305704E-01  4.139868476707E-01
C36 -3.522750306361E-01  1.878692305704E-01 -4.139868476707E-01
C37  3.262393977370E-01 -2.844561023860E-01  4.957684286909E-01
C38 -3.262393977370E-01  2.844561023860E-01 -4.957684286909E-01
C39  2.813046043585E-01  4.354173200168E-03  4.274014868276E-01
C40 -2.813046043585E-01 -4.354173200168E-03 -4.274014868276E-01
C41 -1.743794894365E-02 -2.775781593375E-01  3.306536904628E-01
C42  1.743794894365E-02  2.775781593375E-01 -3.306536904628E-01
C43 -1.039023794432E-01 -3.472779200700E-01  4.138765096991E-01
C44  1.039023794432E-01  3.472779200700E-01 -4.138765096991E-01
C45 -1.000626630573E-01 -9.478551459609E-02  3.151528250543E-01
C46  1.000626630573E-01  9.478551459609E-02 -3.151528250543E-01
H47  1.058970290287E-01  4.028752806305E-02  1.503433365615E-01
H48 -1.058970290287E-01 -4.028752806305E-02 -1.503433365615E-01
H49 -2.050174836980E-01  1.907213521175E-01  1.604560781579E-01
H50  2.050174836980E-01 -1.907213521175E-01 -1.604560781579E-01
H51 -4.357915167296E-01  3.697073949861E-01  9.585170471323E-02
H52  4.357915167296E-01 -3.697073949861E-01 -9.585170471323E-02
H53 -3.564684959217E-01  4.751175263230E-01 -4.838932578635E-02
H54  3.564684959217E-01 -4.751175263230E-01  4.838932578635E-02
H55 -4.632467081249E-02  4.023180140485E-01 -1.280884349638E-01
H56  4.632467081249E-02 -4.023180140485E-01  1.280884349638E-01
H57  2.697167619401E-01  2.559523792458E-01 -1.357367603973E-01
H58 -2.697167619401E-01 -2.559523792458E-01  1.357367603973E-01
H59  2.810747725159E-01  4.024001392571E-01  3.765288722626E-01
H60 -2.810747725159E-01 -4.024001392571E-01 -3.765288722626E-01
H61  2.587258515931E-01  4.105023645761E-01  1.871766503532E-01
H62 -2.587258515931E-01 -4.105023645761E-01 -1.871766503532E-01
H63  7.762649136670E-02  3.556884376536E-01  2.652617454758E-01
H64 -7.762649136670E-02 -3.556884376536E-01 -2.652617454758E-01
H65  2.829755733323E-01  2.162907931031E-01  2.420908560159E-01
H66 -2.829755733323E-01 -2.162907931031E-01 -2.420908560159E-01
H67 -4.182021738182E-01  2.865818714110E-01  2.909914528102E-01
H68  4.182021738182E-01 -2.865818714110E-01 -2.909914528102E-01
H69 -3.893277013014E-01  4.875848186685E-01  3.451226482900E-01
H70  3.893277013014E-01 -4.875848186685E-01 -3.451226482900E-01
H71 -4.082359806886E-01  4.847707392048E-01  2.364695985851E-01
H72  4.082359806886E-01 -4.847707392048E-01 -2.364695985851E-01
H73 -4.965524216716E-01 -1.902079506006E-01  3.913930600298E-01
H74  4.965524216716E-01  1.902079506006E-01 -3.913930600298E-01
H75  4.063292974334E-01 -2.260033518453E-01 -4.575140292458E-01
H76 -4.063292974334E-01  2.260033518453E-01  4.575140292458E-01
H77  3.711402828283E-01 -4.240133558729E-01  4.867688970815E-01
H78 -3.711402828283E-01  4.240133558729E-01 -4.867688970815E-01
H79  1.790246660758E-01 -2.771392379842E-01 -4.762976301767E-01
H80 -1.790246660758E-01  2.771392379842E-01  4.762976301767E-01
H81  1.298837042507E-01  1.443341252128E-02  4.481404835630E-01
H82 -1.298837042507E-01 -1.443341252128E-02 -4.481404835630E-01
H83  3.067654973241E-01  7.677791097470E-02  3.697846171869E-01
H84 -3.067654973241E-01 -7.677791097470E-02 -3.697846171869E-01
H85  3.493760540517E-01  7.079790508270E-02  4.762050904449E-01
H86 -3.493760540517E-01 -7.079790508270E-02 -4.762050904449E-01
H87 -4.930616477787E-02 -3.673254432552E-01  2.796585333012E-01
H88  4.930616477787E-02  3.673254432552E-01 -2.796585333012E-01
H89 -5.128208721840E-02 -4.818355713659E-01  4.226405775013E-01
H90  5.128208721840E-02  4.818355713659E-01 -4.226405775013E-01
H91 -2.571617321248E-01 -3.479292049303E-01  4.182028808709E-01
H92  2.571617321248E-01  3.479292049303E-01 -4.182028808709E-01
H93 -7.252843779562E-02 -2.646922995126E-01  4.669597268634E-01
H94  7.252843779562E-02  2.646922995126E-01 -4.669597268634E-01
H95 -2.202166086868E-02 -3.752621852497E-02  2.607671342286E-01
H96  2.202166086868E-02  3.752621852497E-02 -2.607671342286E-01
H97 -9.814578923714E-02 -3.420734084169E-03  3.692586239243E-01
H98  9.814578923714E-02  3.420734084169E-03 -3.692586239243E-01
H99 -2.466168497607E-01 -1.011391462284E-01  3.030391782117E-01
H100  2.466168497607E-01  1.011391462284E-01 -3.030391782117E-01


#===END

data_OPT_STEP_67

_symmetry_space_group_name_H-M 'P 1'
_cell_length_a      7.17851555
_cell_length_b      7.60328599
_cell_length_c     16.04905028
_cell_angle_alpha   92.100589
_cell_angle_beta   82.773793
_cell_angle_gamma   87.273583

loop_
_atom_site_label
_atom_site_fract_x
_atom_site_fract_y
_atom_site_fract_z
SI1  2.494710419377E-01 -3.014328483721E-01  3.236825294828E-01
SI2 -2.494710419377E-01  3.014328483721E-01 -3.236825294828E-01
C3  4.523161539003E-01 -6.277975415693E-02  8.156693029596E-02
C4 -4.523161539003E-01  6.277975415693E-02 -8.156693029596E-02
C5  3.209657954144E-01  4.479960465498E-02  4.560762739240E-02
C6 -3.209657954144E-01 -4.479960465498E-02 -4.560762739240E-02
C7  1.422578174100E-01  9.034266046076E-02  8.848380613184E-02
C8 -1.422578174100E-01 -9.034266046076E-02 -8.848380613184E-02
C9  1.162435424241E-02  1.936359207400E-01  5.382774053800E-02
C10 -1.162435424241E-02 -1.936359207400E-01 -5.382774053800E-02
C11 -1.697654103373E-01  2.396613443798E-01  9.807119533260E-02
C12  1.697654103373E-01 -2.396613443798E-01 -9.807119533260E-02
C13 -2.971094363938E-01  3.386164969937E-01  6.197019974943E-02
C14  2.971094363938E-01 -3.386164969937E-01 -6.197019974943E-02
C15 -2.518763723934E-01  3.971860917656E-01 -2.084256355174E-02
C16  2.518763723934E-01 -3.971860917656E-01  2.084256355174E-02
C17 -8.096843123865E-02  3.562603854293E-01 -6.522819902718E-02
C18  8.096843123865E-02 -3.562603854293E-01  6.522819902718E-02
C19  5.757268360864E-02  2.535164022232E-01 -2.980253344408E-02
C20 -5.757268360864E-02 -2.535164022232E-01  2.980253344408E-02
C21  2.335370725565E-01  2.100266555891E-01 -7.286280503334E-02
C22 -2.335370725565E-01 -2.100266555891E-01  7.286280503334E-02
C23  3.683194214975E-01  1.077107989225E-01 -3.746294888748E-02
C24 -3.683194214975E-01 -1.077107989225E-01  3.746294888748E-02
C25  4.001827962743E-01 -1.318111736522E-01  1.610032553701E-01
C26 -4.001827962743E-01  1.318111736522E-01 -1.610032553701E-01
C27  3.482058278363E-01 -1.966253975847E-01  2.275564318404E-01
C28 -3.482058278363E-01  1.966253975847E-01 -2.275564318404E-01
C29  3.260550700025E-01  4.544320220514E-01  3.145701446757E-01
C30 -3.260550700025E-01 -4.544320220514E-01 -3.145701446757E-01
C31  2.305155149211E-01  3.541617683202E-01  2.491787993136E-01
C32 -2.305155149211E-01 -3.541617683202E-01 -2.491787993136E-01
C33 -4.605386668595E-01  4.276933697458E-01  2.959684456838E-01
C34  4.605386668595E-01 -4.276933697458E-01 -2.959684456838E-01
C35  3.522042454299E-01 -1.879898049478E-01  4.140189222032E-01
C36 -3.522042454299E-01  1.879898049478E-01 -4.140189222032E-01
C37  3.262606365274E-01 -2.844901796531E-01  4.958358193757E-01
C38 -3.262606365274E-01  2.844901796531E-01 -4.958358193757E-01
C39  2.810928919342E-01  4.115573538129E-03  4.274269548147E-01
C40 -2.810928919342E-01 -4.115573538129E-03 -4.274269548147E-01
C41 -1.755061464352E-02 -2.780664938375E-01  3.306243392923E-01
C42  1.755061464352E-02  2.780664938375E-01 -3.306243392923E-01
C43 -1.038227168511E-01 -3.470217282961E-01  4.140575834425E-01
C44  1.038227168511E-01  3.470217282961E-01 -4.140575834425E-01
C45 -1.002727262486E-01 -9.560647024774E-02  3.147438370315E-01
C46  1.002727262486E-01  9.560647024774E-02 -3.147438370315E-01
H47  1.060421671608E-01  4.046023565086E-02  1.503833553497E-01
H48 -1.060421671608E-01 -4.046023565086E-02 -1.503833553497E-01
H49 -2.049079326715E-01  1.908074281298E-01  1.604688746536E-01
H50  2.049079326715E-01 -1.908074281298E-01 -1.604688746536E-01
H51 -4.356781946288E-01  3.698303505239E-01  9.589007684416E-02
H52  4.356781946288E-01 -3.698303505239E-01 -9.589007684416E-02
H53 -3.564399867661E-01  4.751447916133E-01 -4.844317211489E-02
H54  3.564399867661E-01 -4.751447916133E-01  4.844317211489E-02
H55 -4.640908658108E-02  4.022319452992E-01 -1.281543302955E-01
H56  4.640908658108E-02 -4.022319452992E-01  1.281543302955E-01
H57  2.696769102189E-01  2.559405913610E-01 -1.357819701624E-01
H58 -2.696769102189E-01 -2.559405913610E-01  1.357819701624E-01
H59  2.814444952703E-01  4.023923918444E-01  3.765854210158E-01
H60 -2.814444952703E-01 -4.023923918444E-01 -3.765854210158E-01
H61  2.586752434738E-01  4.099654286573E-01  1.872031127044E-01
H62 -2.586752434738E-01 -4.099654286573E-01 -1.872031127044E-01
H63  7.774225764848E-02  3.551809072150E-01  2.653514180858E-01
H64 -7.774225764848E-02 -3.551809072150E-01 -2.653514180858E-01
H65  2.832499528327E-01  2.160490117606E-01  2.422548659429E-01
H66 -2.832499528327E-01 -2.160490117606E-01 -2.422548659429E-01
H67 -4.178272148734E-01  2.868213107425E-01  2.910392000624E-01
H68  4.178272148734E-01 -2.868213107425E-01 -2.910392000624E-01
H69 -3.890348448882E-01  4.879652208478E-01  3.450738770301E-01
H70  3.890348448882E-01 -4.879652208478E-01 -3.450738770301E-01
H71 -4.082006934369E-01  4.848538421185E-01  2.364062012661E-01
H72  4.082006934369E-01 -4.848538421185E-01 -2.364062012661E-01
H73 -4.965925324822E-01 -1.901389407150E-01  3.914580718331E-01
H74  4.965925324822E-01  1.901389407150E-01 -3.914580718331E-01
H75  4.066212392194E-01 -2.260904395354E-01 -4.574860312482E-01
H76 -4.066212392194E-01  2.260904395354E-01  4.574860312482E-01
H77  3.709292362233E-01 -4.240601131849E-01  4.868523180391E-01
H78 -3.709292362233E-01  4.240601131849E-01 -4.868523180391E-01
H79  1.790577454739E-01 -2.770110903140E-01 -4.761693258950E-01
H80 -1.790577454739E-01  2.770110903140E-01  4.761693258950E-01
H81  1.296377271751E-01  1.404766962114E-02  4.481567929510E-01
H82 -1.296377271751E-01 -1.404766962114E-02 -4.481567929510E-01
H83  3.065246753223E-01  7.658671364409E-02  3.697980041895E-01
H84 -3.065246753223E-01 -7.658671364409E-02 -3.697980041895E-01
H85  3.491550248250E-01  7.059298678216E-02  4.762678487310E-01
H86 -3.491550248250E-01 -7.059298678216E-02 -4.762678487310E-01
H87 -4.955799114299E-02 -3.683058810061E-01  2.798204823342E-01
H88  4.955799114299E-02  3.683058810061E-01 -2.798204823342E-01
H89 -5.094629286333E-02 -4.813001744659E-01  4.231484017993E-01
H90  5.094629286333E-02  4.813001744659E-01 -4.231484017993E-01
H91 -2.571099694300E-01 -3.480320285175E-01  4.183961756879E-01
H92  2.571099694300E-01  3.480320285175E-01 -4.183961756879E-01
H93 -7.251460883283E-02 -2.637995111961E-01  4.669656569475E-01
H94  7.251460883283E-02  2.637995111961E-01 -4.669656569475E-01
H95 -2.293539167485E-02 -3.932760637895E-02  2.598974448134E-01
H96  2.293539167485E-02  3.932760637895E-02 -2.598974448134E-01
H97 -9.732344497076E-02 -3.446002609742E-03  3.684735986691E-01
H98  9.732344497076E-02  3.446002609742E-03 -3.684735986691E-01
H99 -2.472025074496E-01 -1.021029636504E-01  3.031138175832E-01
H100  2.472025074496E-01  1.021029636504E-01 -3.031138175832E-01


#===END

data_OPT_STEP_68

_symmetry_space_group_name_H-M 'P 1'
_cell_length_a      7.17602892
_cell_length_b      7.60538190
_cell_length_c     16.04403551
_cell_angle_alpha   92.100275
_cell_angle_beta   82.805029
_cell_angle_gamma   87.296509

loop_
_atom_site_label
_atom_site_fract_x
_atom_site_fract_y
_atom_site_fract_z
SI1  2.494958626853E-01 -3.016735719012E-01  3.236541211427E-01
SI2 -2.494958626853E-01  3.016735719012E-01 -3.236541211427E-01
C3  4.523396859257E-01 -6.277608327202E-02  8.156382263791E-02
C4 -4.523396859257E-01  6.277608327202E-02 -8.156382263791E-02
C5  3.209683764652E-01  4.479764030229E-02  4.560716393048E-02
C6 -3.209683764652E-01 -4.479764030229E-02 -4.560716393048E-02
C7  1.422949157525E-01  9.039347502162E-02  8.848963931452E-02
C8 -1.422949157525E-01 -9.039347502162E-02 -8.848963931452E-02
C9  1.163384195984E-02  1.936575920211E-01  5.381547638378E-02
C10 -1.163384195984E-02 -1.936575920211E-01 -5.381547638378E-02
C11 -1.697178783389E-01  2.397392562328E-01  9.806418615647E-02
C12  1.697178783389E-01 -2.397392562328E-01 -9.806418615647E-02
C13 -2.970677225774E-01  3.387198922996E-01  6.195325119372E-02
C14  2.970677225774E-01 -3.387198922996E-01 -6.195325119372E-02
C15 -2.518816637063E-01  3.972424662118E-01 -2.088357759413E-02
C16  2.518816637063E-01 -3.972424662118E-01  2.088357759413E-02
C17 -8.101431797036E-02  3.562246418989E-01 -6.528172513980E-02
C18  8.101431797036E-02 -3.562246418989E-01  6.528172513980E-02
C19  5.754622228322E-02  2.534956058629E-01 -2.983922277065E-02
C20 -5.754622228322E-02 -2.534956058629E-01  2.983922277065E-02
C21  2.335065431892E-01  2.100147048560E-01 -7.290053260801E-02
C22 -2.335065431892E-01 -2.100147048560E-01  7.290053260801E-02
C23  3.682989777118E-01  1.077033747942E-01 -3.748520501610E-02
C24 -3.682989777118E-01 -1.077033747942E-01  3.748520501610E-02
C25  4.001711547216E-01 -1.319034328260E-01  1.609947061075E-01
C26 -4.001711547216E-01  1.319034328260E-01 -1.609947061075E-01
C27  3.482594580717E-01 -1.968003827853E-01  2.275408682490E-01
C28 -3.482594580717E-01  1.968003827853E-01 -2.275408682490E-01
C29  3.262459131311E-01  4.543175162180E-01  3.145938925117E-01
C30 -3.262459131311E-01 -4.543175162180E-01 -3.145938925117E-01
C31  2.306598493528E-01  3.538527383088E-01  2.492278822526E-01
C32 -2.306598493528E-01 -3.538527383088E-01 -2.492278822526E-01
C33 -4.603007995725E-01  4.277787818157E-01  2.959743169054E-01
C34  4.603007995725E-01 -4.277787818157E-01 -2.959743169054E-01
C35  3.521145771751E-01 -1.881681695138E-01  4.140592950946E-01
C36 -3.521145771751E-01  1.881681695138E-01 -4.140592950946E-01
C37  3.262920794443E-01 -2.845872239087E-01  4.959253891655E-01
C38 -3.262920794443E-01  2.845872239087E-01 -4.959253891655E-01
C39  2.809081530257E-01  3.826671431268E-03  4.274406256958E-01
C40 -2.809081530257E-01 -3.826671431268E-03 -4.274406256958E-01
C41 -1.761955174293E-02 -2.785575195713E-01  3.305696830334E-01
C42  1.761955174293E-02  2.785575195713E-01 -3.305696830334E-01
C43 -1.037376062886E-01 -3.467523752063E-01  4.142057833153E-01
C44  1.037376062886E-01  3.467523752063E-01 -4.142057833153E-01
C45 -1.004219519790E-01 -9.643036880424E-02  3.143102186860E-01
C46  1.004219519790E-01  9.643036880424E-02 -3.143102186860E-01
H47  1.061572482523E-01  4.065139470373E-02  1.504325066154E-01
H48 -1.061572482523E-01 -4.065139470373E-02 -1.504325066154E-01
H49 -2.048449007962E-01  1.909234927602E-01  1.604800200714E-01
H50  2.048449007962E-01 -1.909234927602E-01 -1.604800200714E-01
H51 -4.355748126478E-01  3.699472811696E-01  9.590991482349E-02
H52  4.355748126478E-01 -3.699472811696E-01 -9.590991482349E-02
H53 -3.564193685684E-01  4.752192576734E-01 -4.851205885285E-02
H54  3.564193685684E-01 -4.752192576734E-01  4.851205885285E-02
H55 -4.649568943347E-02  4.021498254910E-01 -1.282290786957E-01
H56  4.649568943347E-02 -4.021498254910E-01  1.282290786957E-01
H57  2.696346618679E-01  2.559482639986E-01 -1.358284726045E-01
H58 -2.696346618679E-01 -2.559482639986E-01  1.358284726045E-01
H59  2.817599015951E-01  4.023207834571E-01  3.766370702587E-01
H60 -2.817599015951E-01 -4.023207834571E-01 -3.766370702587E-01
H61  2.586476179077E-01  4.095541862636E-01  1.872165119449E-01
H62 -2.586476179077E-01 -4.095541862636E-01 -1.872165119449E-01
H63  7.787381493267E-02  3.547209089700E-01  2.654198558761E-01
H64 -7.787381493267E-02 -3.547209089700E-01 -2.654198558761E-01
H65  2.835297304175E-01  2.158403624656E-01  2.423468524860E-01
H66 -2.835297304175E-01 -2.158403624656E-01 -2.423468524860E-01
H67 -4.174719220517E-01  2.869890523435E-01  2.910779351329E-01
H68  4.174719220517E-01 -2.869890523435E-01 -2.910779351329E-01
H69 -3.887407330070E-01  4.881687311808E-01  3.450678420466E-01
H70  3.887407330070E-01 -4.881687311808E-01 -3.450678420466E-01
H71 -4.081099958235E-01  4.849110194786E-01  2.363843164548E-01
H72  4.081099958235E-01 -4.849110194786E-01 -2.363843164548E-01
H73 -4.966404730503E-01 -1.901411940239E-01  3.915300674884E-01
H74  4.966404730503E-01  1.901411940239E-01 -3.915300674884E-01
H75  4.070772465877E-01 -2.263171007225E-01 -4.574749514331E-01
H76 -4.070772465877E-01  2.263171007225E-01  4.574749514331E-01
H77  3.706136415631E-01 -4.241758977157E-01  4.869419878863E-01
H78 -3.706136415631E-01  4.241758977157E-01 -4.869419878863E-01
H79  1.791371745193E-01 -2.768118698283E-01 -4.759629642710E-01
H80 -1.791371745193E-01  2.768118698283E-01  4.759629642710E-01
H81  1.294050798763E-01  1.370490104887E-02  4.481661905091E-01
H82 -1.294050798763E-01 -1.370490104887E-02 -4.481661905091E-01
H83  3.063016899212E-01  7.626582133208E-02  3.697920573476E-01
H84 -3.063016899212E-01 -7.626582133208E-02 -3.697920573476E-01
H85  3.490055969319E-01  7.035752622562E-02  4.762987576739E-01
H86 -3.490055969319E-01 -7.035752622562E-02 -4.762987576739E-01
H87 -4.978832572174E-02 -3.692644731861E-01  2.799615017824E-01
H88  4.978832572174E-02  3.692644731861E-01 -2.799615017824E-01
H89 -5.072080466948E-02 -4.807761900147E-01  4.236011405031E-01
H90  5.072080466948E-02  4.807761900147E-01 -4.236011405031E-01
H91 -2.570645172890E-01 -3.479741389724E-01  4.185624862263E-01
H92  2.570645172890E-01  3.479741389724E-01 -4.185624862263E-01
H93 -7.239930968507E-02 -2.629751792848E-01  4.669325589794E-01
H94  7.239930968507E-02  2.629751792848E-01 -4.669325589794E-01
H95 -2.378351999197E-02 -4.115291204768E-02  2.590132469438E-01
H96  2.378351999197E-02  4.115291204768E-02 -2.590132469438E-01
H97 -9.646236884991E-02 -3.489870151656E-03  3.676563753740E-01
H98  9.646236884991E-02  3.489870151656E-03 -3.676563753740E-01
H99 -2.477186122581E-01 -1.030407380917E-01  3.031539216054E-01
H100  2.477186122581E-01  1.030407380917E-01 -3.031539216054E-01


#===END

data_OPT_STEP_69

_symmetry_space_group_name_H-M 'P 1'
_cell_length_a      7.17120611
_cell_length_b      7.60966093
_cell_length_c     16.03496570
_cell_angle_alpha   92.100274
_cell_angle_beta   82.869167
_cell_angle_gamma   87.348408

loop_
_atom_site_label
_atom_site_fract_x
_atom_site_fract_y
_atom_site_fract_z
SI1  2.494945849648E-01 -3.021814361789E-01  3.236027604740E-01
SI2 -2.494945849648E-01  3.021814361789E-01 -3.236027604740E-01
C3  4.523741852374E-01 -6.276655394349E-02  8.157363580980E-02
C4 -4.523741852374E-01  6.276655394349E-02 -8.157363580980E-02
C5  3.210014983966E-01  4.481502745346E-02  4.560301266120E-02
C6 -3.210014983966E-01 -4.481502745346E-02 -4.560301266120E-02
C7  1.424069534332E-01  9.052106420244E-02  8.849948525786E-02
C8 -1.424069534332E-01 -9.052106420244E-02 -8.849948525786E-02
C9  1.170830672613E-02  1.937524082204E-01  5.380042102629E-02
C10 -1.170830672613E-02 -1.937524082204E-01 -5.380042102629E-02
C11 -1.695754225387E-01  2.399142395497E-01  9.806265154098E-02
C12  1.695754225387E-01 -2.399142395497E-01 -9.806265154098E-02
C13 -2.969656023351E-01  3.388426439946E-01  6.191057973779E-02
C14  2.969656023351E-01 -3.388426439946E-01 -6.191057973779E-02
C15 -2.518828030062E-01  3.972684776792E-01 -2.097265837387E-02
C16  2.518828030062E-01 -3.972684776792E-01  2.097265837387E-02
C17 -8.108127447032E-02  3.561682267165E-01 -6.537980860078E-02
C18  8.108127447032E-02 -3.561682267165E-01  6.537980860078E-02
C19  5.752894427818E-02  2.534855165442E-01 -2.990452835844E-02
C20 -5.752894427818E-02 -2.534855165442E-01  2.990452835844E-02
C21  2.334651336242E-01  2.099984250838E-01 -7.297372670903E-02
C22 -2.334651336242E-01 -2.099984250838E-01  7.297372670903E-02
C23  3.682798659303E-01  1.077023131641E-01 -3.752726810862E-02
C24 -3.682798659303E-01 -1.077023131641E-01  3.752726810862E-02
C25  4.001405136657E-01 -1.320418989499E-01  1.609973565704E-01
C26 -4.001405136657E-01  1.320418989499E-01 -1.609973565704E-01
C27  3.482797228891E-01 -1.971244898384E-01  2.275189762538E-01
C28 -3.482797228891E-01  1.971244898384E-01 -2.275189762538E-01
C29  3.266313775159E-01  4.540883248658E-01  3.146210260124E-01
C30 -3.266313775159E-01 -4.540883248658E-01 -3.146210260124E-01
C31  2.309266828485E-01  3.532759891997E-01  2.492962804547E-01
C32 -2.309266828485E-01 -3.532759891997E-01 -2.492962804547E-01
C33 -4.598089189409E-01  4.280560458547E-01  2.959547367061E-01
C34  4.598089189409E-01 -4.280560458547E-01 -2.959547367061E-01
C35  3.519262988432E-01 -1.885202418800E-01  4.141392174011E-01
C36 -3.519262988432E-01  1.885202418800E-01 -4.141392174011E-01
C37  3.264354085506E-01 -2.847653493009E-01  4.960911801364E-01
C38 -3.264354085506E-01  2.847653493009E-01 -4.960911801364E-01
C39  2.805277577298E-01  3.251046669935E-03  4.274758150300E-01
C40 -2.805277577298E-01 -3.251046669935E-03 -4.274758150300E-01
C41 -1.780045705100E-02 -2.795877944117E-01  3.304731050102E-01
C42  1.780045705100E-02  2.795877944117E-01 -3.304731050102E-01
C43 -1.035232472358E-01 -3.462250987249E-01  4.145347433793E-01
C44  1.035232472358E-01  3.462250987249E-01 -4.145347433793E-01
C45 -1.007723675998E-01 -9.815174127391E-02  3.134404847614E-01
C46  1.007723675998E-01  9.815174127391E-02 -3.134404847614E-01
H47  1.064313099959E-01  4.108848491946E-02  1.505365907005E-01
H48 -1.064313099959E-01 -4.108848491946E-02 -1.505365907005E-01
H49 -2.046595765979E-01  1.911636050130E-01  1.605113068385E-01
H50  2.046595765979E-01 -1.911636050130E-01 -1.605113068385E-01
H51 -4.353912723041E-01  3.700900276330E-01  9.591157514224E-02
H52  4.353912723041E-01 -3.700900276330E-01 -9.591157514224E-02
H53 -3.564321235159E-01  4.752077838650E-01 -4.864475520972E-02
H54  3.564321235159E-01 -4.752077838650E-01  4.864475520972E-02
H55 -4.664377072078E-02  4.019826912381E-01 -1.283723736841E-01
H56  4.664377072078E-02 -4.019826912381E-01  1.283723736841E-01
H57  2.695583099190E-01  2.559591453181E-01 -1.359145052282E-01
H58 -2.695583099190E-01 -2.559591453181E-01  1.359145052282E-01
H59  2.824258369903E-01  4.021358097067E-01  3.767155979220E-01
H60 -2.824258369903E-01 -4.021358097067E-01 -3.767155979220E-01
H61  2.584657231587E-01  4.089283609111E-01  1.872359515820E-01
H62 -2.584657231587E-01 -4.089283609111E-01 -1.872359515820E-01
H63  7.813457189421E-02  3.537062662514E-01  2.655682659549E-01
H64 -7.813457189421E-02 -3.537062662514E-01 -2.655682659549E-01
H65  2.841449575750E-01  2.154837690115E-01  2.424257667612E-01
H66 -2.841449575750E-01 -2.154837690115E-01 -2.424257667612E-01
H67 -4.167042101787E-01  2.874380261073E-01  2.911713435422E-01
H68  4.167042101787E-01 -2.874380261073E-01 -2.911713435422E-01
H69 -3.881082026006E-01  4.888253179031E-01  3.449892933455E-01
H70  3.881082026006E-01 -4.888253179031E-01 -3.449892933455E-01
H71 -4.079636799744E-01  4.850593533628E-01  2.362763305559E-01
H72  4.079636799744E-01 -4.850593533628E-01 -2.362763305559E-01
H73 -4.967772493708E-01 -1.901795090295E-01  3.916536039694E-01
H74  4.967772493708E-01  1.901795090295E-01 -3.916536039694E-01
H75  4.079378793695E-01 -2.266044700180E-01 -4.574537036493E-01
H76 -4.079378793695E-01  2.266044700180E-01  4.574537036493E-01
H77  3.702923763634E-01 -4.243344858335E-01  4.871194961328E-01
H78 -3.702923763634E-01  4.243344858335E-01 -4.871194961328E-01
H79  1.793798973716E-01 -2.766028820958E-01 -4.755913166263E-01
H80 -1.793798973716E-01  2.766028820958E-01  4.755913166263E-01
H81  1.289382043445E-01  1.296932844491E-02  4.481635992668E-01
H82 -1.289382043445E-01 -1.296932844491E-02 -4.481635992668E-01
H83  3.058589605590E-01  7.568913772421E-02  3.698046021281E-01
H84 -3.058589605590E-01 -7.568913772421E-02 -3.698046021281E-01
H85  3.486182653207E-01  6.987458355537E-02  4.763999859952E-01
H86 -3.486182653207E-01 -6.987458355537E-02 -4.763999859952E-01
H87 -5.031549636752E-02 -3.712562356082E-01  2.802768827266E-01
H88  5.031549636752E-02  3.712562356082E-01 -2.802768827266E-01
H89 -5.024056849033E-02 -4.797389080937E-01  4.245415127674E-01
H90  5.024056849033E-02  4.797389080937E-01 -4.245415127674E-01
H91 -2.569342294235E-01 -3.478561981207E-01  4.189900303594E-01
H92  2.569342294235E-01  3.478561981207E-01 -4.189900303594E-01
H93 -7.202346617893E-02 -2.613076885958E-01  4.668615471714E-01
H94  7.202346617893E-02  2.613076885958E-01 -4.668615471714E-01
H95 -2.542245768611E-02 -4.478687420439E-02  2.572924721619E-01
H96  2.542245768611E-02  4.478687420439E-02 -2.572924721619E-01
H97 -9.495617431431E-02 -3.686372611467E-03  3.660519378571E-01
H98  9.495617431431E-02  3.686372611467E-03 -3.660519378571E-01
H99 -2.487462601726E-01 -1.050392051445E-01  3.031487258297E-01
H100  2.487462601726E-01  1.050392051445E-01 -3.031487258297E-01


#===END

data_OPT_STEP_70

_symmetry_space_group_name_H-M 'P 1'
_cell_length_a      7.16204712
_cell_length_b      7.61941586
_cell_length_c     16.01762673
_cell_angle_alpha   92.101764
_cell_angle_beta   83.001960
_cell_angle_gamma   87.449246

loop_
_atom_site_label
_atom_site_fract_x
_atom_site_fract_y
_atom_site_fract_z
SI1  2.494528014840E-01 -3.033311770998E-01  3.234899317574E-01
SI2 -2.494528014840E-01  3.033311770998E-01 -3.234899317574E-01
C3  4.524051741534E-01 -6.268971976412E-02  8.163537523098E-02
C4 -4.524051741534E-01  6.268971976412E-02 -8.163537523098E-02
C5  3.210435400469E-01  4.485882653216E-02  4.556573552396E-02
C6 -3.210435400469E-01 -4.485882653216E-02 -4.556573552396E-02
C7  1.426144259101E-01  9.083516520145E-02  8.848656867327E-02
C8 -1.426144259101E-01 -9.083516520145E-02 -8.848656867327E-02
C9  1.188540200929E-02  1.940711203761E-01  5.374859725622E-02
C10 -1.188540200929E-02 -1.940711203761E-01 -5.374859725622E-02
C11 -1.692332827367E-01  2.405114231266E-01  9.804131934776E-02
C12  1.692332827367E-01 -2.405114231266E-01 -9.804131934776E-02
C13 -2.966765867639E-01  3.392224604469E-01  6.174820106822E-02
C14  2.966765867639E-01 -3.392224604469E-01 -6.174820106822E-02
C15 -2.518034533525E-01  3.973864788544E-01 -2.123272486673E-02
C16  2.518034533525E-01 -3.973864788544E-01  2.123272486673E-02
C17 -8.116354434151E-02  3.560878024344E-01 -6.562813979608E-02
C18  8.116354434151E-02 -3.560878024344E-01  6.562813979608E-02
C19  5.750809680942E-02  2.534681013994E-01 -3.007641591031E-02
C20 -5.750809680942E-02 -2.534681013994E-01  3.007641591031E-02
C21  2.333625421454E-01  2.098729977899E-01 -7.317423910708E-02
C22 -2.333625421454E-01 -2.098729977899E-01  7.317423910708E-02
C23  3.682323138711E-01  1.076819057564E-01 -3.763772370660E-02
C24 -3.682323138711E-01 -1.076819057564E-01  3.763772370660E-02
C25  4.000016531900E-01 -1.322417362118E-01  1.610389665571E-01
C26 -4.000016531900E-01  1.322417362118E-01 -1.610389665571E-01
C27  3.483455757129E-01 -1.978735836145E-01  2.274769272948E-01
C28 -3.483455757129E-01  1.978735836145E-01 -2.274769272948E-01
C29  3.273434051885E-01  4.535460541234E-01  3.146534836916E-01
C30 -3.273434051885E-01 -4.535460541234E-01 -3.146534836916E-01
C31  2.314447155129E-01  3.523349744765E-01  2.493002593941E-01
C32 -2.314447155129E-01 -3.523349744765E-01 -2.493002593941E-01
C33 -4.588837333678E-01  4.284975248276E-01  2.959654383644E-01
C34  4.588837333678E-01 -4.284975248276E-01 -2.959654383644E-01
C35  3.512763728921E-01 -1.893898520822E-01  4.143519865882E-01
C36 -3.512763728921E-01  1.893898520822E-01 -4.143519865882E-01
C37  3.265746642201E-01 -2.852469091404E-01  4.964891523882E-01
C38 -3.265746642201E-01  2.852469091404E-01 -4.964891523882E-01
C39  2.796641716718E-01  1.932205265571E-03  4.275859016396E-01
C40 -2.796641716718E-01 -1.932205265571E-03 -4.275859016396E-01
C41 -1.815254603936E-02 -2.816560948939E-01  3.301350904004E-01
C42  1.815254603936E-02  2.816560948939E-01 -3.301350904004E-01
C43 -1.032620096648E-01 -3.451123686561E-01  4.149757409964E-01
C44  1.032620096648E-01  3.451123686561E-01 -4.149757409964E-01
C45 -1.013393641611E-01 -1.016536959257E-01  3.115835310542E-01
C46  1.013393641611E-01  1.016536959257E-01 -3.115835310542E-01
H47  1.070024626585E-01  4.221916168442E-02  1.507629482681E-01
H48 -1.070024626585E-01 -4.221916168442E-02 -1.507629482681E-01
H49 -2.042465004395E-01  1.919191754058E-01  1.605540220717E-01
H50  2.042465004395E-01 -1.919191754058E-01 -1.605540220717E-01
H51 -4.348770246642E-01  3.706472861811E-01  9.584960294389E-02
H52  4.348770246642E-01 -3.706472861811E-01 -9.584960294389E-02
H53 -3.563245410594E-01  4.753149218086E-01 -4.898877701560E-02
H54  3.563245410594E-01 -4.753149218086E-01  4.898877701560E-02
H55 -4.684617059583E-02  4.016062598521E-01 -1.287191390601E-01
H56  4.684617059583E-02 -4.016062598521E-01  1.287191390601E-01
H57  2.694162569936E-01  2.559526207293E-01 -1.361051157233E-01
H58 -2.694162569936E-01 -2.559526207293E-01  1.361051157233E-01
H59  2.835231110826E-01  4.015891352090E-01  3.768059690452E-01
H60 -2.835231110826E-01 -4.015891352090E-01 -3.768059690452E-01
H61  2.580220817250E-01  4.082830297680E-01  1.872164654211E-01
H62 -2.580220817250E-01 -4.082830297680E-01 -1.872164654211E-01
H63  7.868575721002E-02  3.517922148632E-01  2.657727376333E-01
H64 -7.868575721002E-02 -3.517922148632E-01 -2.657727376333E-01
H65  2.854563259849E-01  2.150164876725E-01  2.422550229369E-01
H66 -2.854563259849E-01 -2.150164876725E-01 -2.422550229369E-01
H67 -4.152846133736E-01  2.882384263628E-01  2.914111964646E-01
H68  4.152846133736E-01 -2.882384263628E-01 -2.914111964646E-01
H69 -3.869417837706E-01  4.899700846927E-01  3.449050827083E-01
H70  3.869417837706E-01 -4.899700846927E-01 -3.449050827083E-01
H71 -4.076270583358E-01  4.852278991960E-01  2.361225774585E-01
H72  4.076270583358E-01 -4.852278991960E-01 -2.361225774585E-01
H73 -4.973281098885E-01 -1.904780498029E-01  3.919690531465E-01
H74  4.973281098885E-01  1.904780498029E-01 -3.919690531465E-01
H75  4.100281770834E-01 -2.275234516296E-01 -4.574814272048E-01
H76 -4.100281770834E-01  2.275234516296E-01  4.574814272048E-01
H77  3.690875064588E-01 -4.248089780134E-01  4.874934169350E-01
H78 -3.690875064588E-01  4.248089780134E-01 -4.874934169350E-01
H79  1.798531672562E-01 -2.758236143394E-01 -4.746011151986E-01
H80 -1.798531672562E-01  2.758236143394E-01  4.746011151986E-01
H81  1.279089979356E-01  1.154943961858E-02  4.482228836572E-01
H82 -1.279089979356E-01 -1.154943961858E-02 -4.482228836572E-01
H83  3.048670299297E-01  7.428913056627E-02  3.698617428215E-01
H84 -3.048670299297E-01 -7.428913056627E-02 -3.698617428215E-01
H85  3.478239604186E-01  6.872139267675E-02  4.766335079882E-01
H86 -3.478239604186E-01 -6.872139267675E-02 -4.766335079882E-01
H87 -5.135100374773E-02 -3.751181675049E-01  2.807741289340E-01
H88  5.135100374773E-02  3.751181675049E-01 -2.807741289340E-01
H89 -5.000580029447E-02 -4.777536958582E-01  4.260818933513E-01
H90  5.000580029447E-02  4.777536958582E-01 -4.260818933513E-01
H91 -2.568762209323E-01 -3.468552448160E-01  4.196524915692E-01
H92  2.568762209323E-01  3.468552448160E-01 -4.196524915692E-01
H93 -7.102422481321E-02 -2.583125018475E-01  4.664925302793E-01
H94  7.102422481321E-02  2.583125018475E-01 -4.664925302793E-01
H95 -2.849064781095E-02 -5.222516331988E-02  2.538944758978E-01
H96  2.849064781095E-02  5.222516331988E-02 -2.538944758978E-01
H97 -9.200023410979E-02 -4.368286509616E-03  3.626936887337E-01
H98  9.200023410979E-02  4.368286509616E-03 -3.626936887337E-01
H99 -2.505144410371E-01 -1.088145254752E-01  3.029258874888E-01
H100  2.505144410371E-01  1.088145254752E-01 -3.029258874888E-01


#===END

data_OPT_STEP_71

_symmetry_space_group_name_H-M 'P 1'
_cell_length_a      7.15360476
_cell_length_b      7.62872601
_cell_length_c     15.99906204
_cell_angle_alpha   92.092975
_cell_angle_beta   83.132543
_cell_angle_gamma   87.555572

loop_
_atom_site_label
_atom_site_fract_x
_atom_site_fract_y
_atom_site_fract_z
SI1  2.495956663837E-01 -3.042517909797E-01  3.234320956894E-01
SI2 -2.495956663837E-01  3.042517909797E-01 -3.234320956894E-01
C3  4.525365063859E-01 -6.267368692331E-02  8.169495637431E-02
C4 -4.525365063859E-01  6.267368692331E-02 -8.169495637431E-02
C5  3.212191988747E-01  4.493006937098E-02  4.558688159284E-02
C6 -3.212191988747E-01 -4.493006937098E-02 -4.558688159284E-02
C7  1.429863085880E-01  9.109661891705E-02  8.855461933144E-02
C8 -1.429863085880E-01 -9.109661891705E-02 -8.855461933144E-02
C9  1.215051716347E-02  1.941826304026E-01  5.375026224983E-02
C10 -1.215051716347E-02 -1.941826304026E-01 -5.375026224983E-02
C11 -1.688304694742E-01  2.406402666813E-01  9.807287841484E-02
C12  1.688304694742E-01 -2.406402666813E-01 -9.807287841484E-02
C13 -2.963859161373E-01  3.392785654481E-01  6.173624317406E-02
C14  2.963859161373E-01 -3.392785654481E-01 -6.173624317406E-02
C15 -2.517488280948E-01  3.973221835152E-01 -2.133240330330E-02
C16  2.517488280948E-01 -3.973221835152E-01  2.133240330330E-02
C17 -8.123983617326E-02  3.559756917848E-01 -6.577086149350E-02
C18  8.123983617326E-02 -3.559756917848E-01  6.577086149350E-02
C19  5.754815685824E-02  2.534668695029E-01 -3.016155158675E-02
C20 -5.754815685824E-02 -2.534668695029E-01  3.016155158675E-02
C21  2.333220395920E-01  2.099079932649E-01 -7.326572465519E-02
C22 -2.333220395920E-01 -2.099079932649E-01  7.326572465519E-02
C23  3.682286413029E-01  1.076943321232E-01 -3.769274512243E-02
C24 -3.682286413029E-01 -1.076943321232E-01  3.769274512243E-02
C25  4.000767056047E-01 -1.324808269374E-01  1.610851437686E-01
C26 -4.000767056047E-01  1.324808269374E-01 -1.610851437686E-01
C27  3.484698139360E-01 -1.984410258973E-01  2.274767586122E-01
C28 -3.484698139360E-01  1.984410258973E-01 -2.274767586122E-01
C29  3.282779873440E-01  4.532194113868E-01  3.147146710225E-01
C30 -3.282779873440E-01 -4.532194113868E-01 -3.147146710225E-01
C31  2.321744394302E-01  3.512760715368E-01  2.494658137451E-01
C32 -2.321744394302E-01 -3.512760715368E-01 -2.494658137451E-01
C33 -4.577744139813E-01  4.292335213569E-01  2.959226098224E-01
C34  4.577744139813E-01 -4.292335213569E-01 -2.959226098224E-01
C35  3.512537351330E-01 -1.898837165330E-01  4.144830999050E-01
C36 -3.512537351330E-01  1.898837165330E-01 -4.144830999050E-01
C37  3.270898809684E-01 -2.854443402063E-01  4.967863963374E-01
C38 -3.270898809684E-01  2.854443402063E-01 -4.967863963374E-01
C39  2.790911186523E-01  9.590932029626E-04  4.275515433244E-01
C40 -2.790911186523E-01 -9.590932029625E-04 -4.275515433244E-01
C41 -1.833529739349E-02 -2.837311586348E-01  3.300336288257E-01
C42  1.833529739349E-02  2.837311586348E-01 -3.300336288257E-01
C43 -1.025764502630E-01 -3.440534840848E-01  4.157598222803E-01
C44  1.025764502630E-01  3.440534840848E-01 -4.157598222803E-01
C45 -1.019098528692E-01 -1.051237355539E-01  3.098636819530E-01
C46  1.019098528692E-01  1.051237355539E-01 -3.098636819530E-01
H47  1.077088464588E-01  4.291137068824E-02  1.509689255583E-01
H48 -1.077088464588E-01 -4.291137068824E-02 -1.509689255583E-01
H49 -2.036826788970E-01  1.921657426517E-01  1.606602049575E-01
H50  2.036826788970E-01 -1.921657426517E-01 -1.606602049575E-01
H51 -4.345100144155E-01  3.706393499349E-01  9.584908757843E-02
H52  4.345100144155E-01 -3.706393499349E-01 -9.584908757843E-02
H53 -3.563959693128E-01  4.750902473764E-01 -4.915123318100E-02
H54  3.563959693128E-01 -4.750902473764E-01  4.915123318100E-02
H55 -4.715839746377E-02  4.013166601853E-01 -1.289499479328E-01
H56  4.715839746377E-02 -4.013166601853E-01  1.289499479328E-01
H57  2.692371275685E-01  2.559369774310E-01 -1.362597962396E-01
H58 -2.692371275685E-01 -2.559369774310E-01  1.362597962396E-01
H59  2.851141902675E-01  4.013359771520E-01  3.769815571927E-01
H60 -2.851141902675E-01 -4.013359771520E-01 -3.769815571927E-01
H61  2.579685496193E-01  4.069520677506E-01  1.872526160239E-01
H62 -2.579685496193E-01 -4.069520677506E-01 -1.872526160239E-01
H63  7.939054375596E-02  3.499001585379E-01  2.660449593165E-01
H64 -7.939054375596E-02 -3.499001585379E-01 -2.660449593165E-01
H65  2.867721548959E-01  2.143989772065E-01  2.425307218059E-01
H66 -2.867721548959E-01 -2.143989772065E-01 -2.425307218059E-01
H67 -4.136157083955E-01  2.893596902156E-01  2.914887026860E-01
H68  4.136157083955E-01 -2.893596902156E-01 -2.914887026860E-01
H69 -3.856113344110E-01  4.912571437015E-01  3.447937627729E-01
H70  3.856113344110E-01 -4.912571437015E-01 -3.447937627729E-01
H71 -4.071813123236E-01  4.858960574805E-01  2.359567270160E-01
H72  4.071813123236E-01 -4.858960574805E-01 -2.359567270160E-01
H73 -4.972551867393E-01 -1.902997001312E-01  3.921866236066E-01
H74  4.972551867393E-01  1.902997001312E-01 -3.921866236066E-01
H75  4.113627825299E-01 -2.277553522686E-01 -4.573227519296E-01
H76 -4.113627825299E-01  2.277553522686E-01  4.573227519296E-01
H77  3.691676640030E-01 -4.248813727295E-01  4.878706425199E-01
H78 -3.691676640030E-01  4.248813727295E-01 -4.878706425199E-01
H79  1.804828046155E-01 -2.758643033503E-01 -4.740974506090E-01
H80 -1.804828046155E-01  2.758643033503E-01  4.740974506090E-01
H81  1.271608518376E-01  9.997305794116E-03  4.479550242437E-01
H82 -1.271608518376E-01 -9.997305794116E-03 -4.479550242437E-01
H83  3.043172481737E-01  7.315454591424E-02  3.697671709477E-01
H84 -3.043172481737E-01 -7.315454591424E-02 -3.697671709477E-01
H85  3.470233490402E-01  6.804397021570E-02  4.767468289633E-01
H86 -3.470233490402E-01 -6.804397021570E-02 -4.767468289633E-01
H87 -5.208928698897E-02 -3.792553782308E-01  2.814893282562E-01
H88  5.208928698897E-02  3.792553782308E-01 -2.814893282562E-01
H89 -4.836927378476E-02 -4.755386014849E-01  4.282399065867E-01
H90  4.836927378476E-02  4.755386014849E-01 -4.282399065867E-01
H91 -2.562923494404E-01 -3.471821922430E-01  4.205490907277E-01
H92  2.562923494404E-01  3.471821922430E-01 -4.205490907277E-01
H93 -7.046219589638E-02 -2.545889237363E-01  4.664898765824E-01
H94  7.046219589638E-02  2.545889237363E-01 -4.664898765824E-01
H95 -3.138515349588E-02 -5.927277512573E-02  2.505778310630E-01
H96  3.138515349588E-02  5.927277512573E-02 -2.505778310630E-01
H97 -8.920600408602E-02 -4.868744803952E-03  3.595972852426E-01
H98  8.920600408602E-02  4.868744803952E-03 -3.595972852426E-01
H99 -2.522959916019E-01 -1.129574950434E-01  3.027462836060E-01
H100  2.522959916019E-01  1.129574950434E-01 -3.027462836060E-01


#===END

data_OPT_STEP_72

_symmetry_space_group_name_H-M 'P 1'
_cell_length_a      7.16245954
_cell_length_b      7.62940181
_cell_length_c     16.00069050
_cell_angle_alpha   92.059734
_cell_angle_beta   83.006706
_cell_angle_gamma   87.455293

loop_
_atom_site_label
_atom_site_fract_x
_atom_site_fract_y
_atom_site_fract_z
SI1  2.501902339958E-01 -3.041888030753E-01  3.236186791563E-01
SI2 -2.501902339958E-01  3.041888030753E-01 -3.236186791563E-01
C3  4.523049413654E-01 -6.295537263386E-02  8.160496232711E-02
C4 -4.523049413654E-01  6.295537263386E-02 -8.160496232711E-02
C5  3.210589976965E-01  4.463441665163E-02  4.558334041819E-02
C6 -3.210589976965E-01 -4.463441665163E-02 -4.558334041819E-02
C7  1.426609250840E-01  9.047303089817E-02  8.857378408562E-02
C8 -1.426609250840E-01 -9.047303089817E-02 -8.857378408562E-02
C9  1.202840003072E-02  1.938087908456E-01  5.383241682374E-02
C10 -1.202840003072E-02 -1.938087908456E-01 -5.383241682374E-02
C11 -1.691374617803E-01  2.400351587931E-01  9.811774829260E-02
C12  1.691374617803E-01 -2.400351587931E-01 -9.811774829260E-02
C13 -2.964886410485E-01  3.388064394617E-01  6.179229636277E-02
C14  2.964886410485E-01 -3.388064394617E-01 -6.179229636277E-02
C15 -2.514750797361E-01  3.972520346294E-01 -2.122241960477E-02
C16  2.514750797361E-01 -3.972520346294E-01  2.122241960477E-02
C17 -8.081639500304E-02  3.562225311728E-01 -6.559039623323E-02
C18  8.081639500304E-02 -3.562225311728E-01  6.559039623323E-02
C19  5.776270409300E-02  2.535092215401E-01 -3.001909856643E-02
C20 -5.776270409300E-02 -2.535092215401E-01  3.001909856643E-02
C21  2.336210109214E-01  2.100575575336E-01 -7.317123300360E-02
C22 -2.336210109214E-01 -2.100575575336E-01  7.317123300360E-02
C23  3.683640082100E-01  1.077251445396E-01 -3.763758723885E-02
C24 -3.683640082100E-01 -1.077251445396E-01  3.763758723885E-02
C25  3.998080184640E-01 -1.328172637145E-01  1.609943622010E-01
C26 -3.998080184640E-01  1.328172637145E-01 -1.609943622010E-01
C27  3.483475052565E-01 -1.991400899969E-01  2.273393895250E-01
C28 -3.483475052565E-01  1.991400899969E-01 -2.273393895250E-01
C29  3.287431459307E-01  4.531765082215E-01  3.148844880227E-01
C30 -3.287431459307E-01 -4.531765082215E-01 -3.148844880226E-01
C31  2.327874913545E-01  3.520343268953E-01  2.494676146170E-01
C32 -2.327874913545E-01 -3.520343268953E-01 -2.494676146170E-01
C33 -4.574161687093E-01  4.290548495327E-01  2.959745456343E-01
C34  4.574161687093E-01 -4.290548495327E-01 -2.959745456343E-01
C35  3.518923459376E-01 -1.895685163533E-01  4.143528532678E-01
C36 -3.518923459376E-01  1.895685163533E-01 -4.143528532678E-01
C37  3.282483889252E-01 -2.853124440310E-01  4.966226076702E-01
C38 -3.282483889252E-01  2.853124440310E-01 -4.966226076702E-01
C39  2.791585449002E-01  1.200833968806E-03  4.275702888728E-01
C40 -2.791585449002E-01 -1.200833968806E-03 -4.275702888728E-01
C41 -1.734384058160E-02 -2.824133582845E-01  3.303875924098E-01
C42  1.734384058160E-02  2.824133582845E-01 -3.303875924098E-01
C43 -1.024097032251E-01 -3.448504271135E-01  4.154964148260E-01
C44  1.024097032251E-01  3.448504271135E-01 -4.154964148260E-01
C45 -9.984807444541E-02 -1.027119598418E-01  3.115712522828E-01
C46  9.984807444541E-02  1.027119598418E-01 -3.115712522828E-01
H47  1.070449817717E-01  4.181680804994E-02  1.509229391761E-01
H48 -1.070449817717E-01 -4.181680804994E-02 -1.509229391761E-01
H49 -2.042552948324E-01  1.913023823182E-01  1.606831522984E-01
H50  2.042552948324E-01 -1.913023823182E-01 -1.606831522984E-01
H51 -4.347308670306E-01  3.700751855550E-01  9.584405236176E-02
H52  4.347308670306E-01 -3.700751855550E-01 -9.584405236176E-02
H53 -3.559260284636E-01  4.751269156016E-01 -4.905251869581E-02
H54  3.559260284636E-01 -4.751269156016E-01  4.905251869581E-02
H55 -4.638646945612E-02  4.019001310369E-01 -1.287352081061E-01
H56  4.638646945612E-02 -4.019001310369E-01  1.287352081061E-01
H57  2.697205654843E-01  2.562599282348E-01 -1.361530828446E-01
H58 -2.697205654843E-01 -2.562599282348E-01  1.361530828446E-01
H59  2.853959468964E-01  4.009743827911E-01  3.771204286164E-01
H60 -2.853959468964E-01 -4.009743827911E-01 -3.771204286164E-01
H61  2.581925542455E-01  4.088378538452E-01  1.874106877311E-01
H62 -2.581925542455E-01 -4.088378538452E-01 -1.874106877311E-01
H63  8.017203146207E-02  3.503930721783E-01  2.662926451554E-01
H64 -8.017203146207E-02 -3.503930721783E-01 -2.662926451554E-01
H65  2.877735836662E-01  2.151651062948E-01  2.419749649044E-01
H66 -2.877735836662E-01 -2.151651062948E-01 -2.419749649044E-01
H67 -4.131855829919E-01  2.891449649495E-01  2.915427261678E-01
H68  4.131855829919E-01 -2.891449649495E-01 -2.915427261678E-01
H69 -3.853625996459E-01  4.910418384203E-01  3.447821097827E-01
H70  3.853625996459E-01 -4.910418384203E-01 -3.447821097827E-01
H71 -4.068412923245E-01  4.857284008695E-01  2.359401899771E-01
H72  4.068412923245E-01 -4.857284008695E-01 -2.359401899771E-01
H73 -4.968340938213E-01 -1.898265395281E-01  3.918355957091E-01
H74  4.968340938213E-01  1.898265395281E-01 -3.918355957091E-01
H75  4.123375736337E-01 -2.276573152508E-01 -4.575504351193E-01
H76 -4.123375736337E-01  2.276573152508E-01  4.575504351193E-01
H77  3.707861815680E-01 -4.246230399317E-01  4.874912058096E-01
H78 -3.707861815680E-01  4.246230399317E-01 -4.874912058096E-01
H79  1.818681278557E-01 -2.759502136079E-01 -4.740794204899E-01
H80 -1.818681278557E-01  2.759502136079E-01  4.740794204899E-01
H81  1.274832881780E-01  1.002865385544E-02  4.483625739501E-01
H82 -1.274832881780E-01 -1.002865385544E-02 -4.483625739501E-01
H83  3.035500444403E-01  7.344965532760E-02  3.697383378370E-01
H84 -3.035500444403E-01 -7.344965532760E-02 -3.697383378370E-01
H85  3.472175750331E-01  6.848769035775E-02  4.765364024546E-01
H86 -3.472175750331E-01 -6.848769035775E-02 -4.765364024546E-01
H87 -5.096520409512E-02 -3.758914185043E-01  2.812465738337E-01
H88  5.096520409512E-02  3.758914185043E-01 -2.812465738337E-01
H89 -5.032214850581E-02 -4.775683846787E-01  4.266705026783E-01
H90  5.032214850581E-02  4.775683846787E-01 -4.266705026783E-01
H91 -2.561371324145E-01 -3.452035980564E-01  4.204315829799E-01
H92  2.561371324145E-01  3.452035980564E-01 -4.204315829799E-01
H93 -6.885529918062E-02 -2.585350635064E-01  4.668315542100E-01
H94  6.885529918062E-02  2.585350635064E-01 -4.668315542100E-01
H95 -2.576312860778E-02 -5.333786817762E-02  2.545507146271E-01
H96  2.576312860778E-02  5.333786817762E-02 -2.545507146271E-01
H97 -9.200381179241E-02 -6.535531137509E-03  3.628498321017E-01
H98  9.200381179241E-02  6.535531137509E-03 -3.628498321017E-01
H99 -2.482226998756E-01 -1.089703161888E-01  3.021030138409E-01
H100  2.482226998756E-01  1.089703161888E-01 -3.021030138409E-01


#===END

data_OPT_STEP_73

_symmetry_space_group_name_H-M 'P 1'
_cell_length_a      7.15506515
_cell_length_b      7.62948876
_cell_length_c     15.99801808
_cell_angle_alpha   92.079940
_cell_angle_beta   83.110241
_cell_angle_gamma   87.545939

loop_
_atom_site_label
_atom_site_fract_x
_atom_site_fract_y
_atom_site_fract_z
SI1  2.497683607806E-01 -3.044650108752E-01  3.234410504008E-01
SI2 -2.497683607806E-01  3.044650108752E-01 -3.234410504008E-01
C3  4.524445891925E-01 -6.275370730308E-02  8.166039795311E-02
C4 -4.524445891925E-01  6.275370730308E-02 -8.166039795311E-02
C5  3.211851743720E-01  4.483659949012E-02  4.556788377454E-02
C6 -3.211851743720E-01 -4.483659949012E-02 -4.556788377454E-02
C7  1.429395338145E-01  9.095465448211E-02  8.855552610678E-02
C8 -1.429395338145E-01 -9.095465448211E-02 -8.855552610678E-02
C9  1.218380250894E-02  1.941437512770E-01  5.377003433409E-02
C10 -1.218380250894E-02 -1.941437512770E-01 -5.377003433409E-02
C11 -1.688203472602E-01  2.405856811296E-01  9.808651460760E-02
C12  1.688203472602E-01 -2.405856811296E-01 -9.808651460760E-02
C13 -2.963108967684E-01  3.392204443742E-01  6.172769927832E-02
C14  2.963108967684E-01 -3.392204443742E-01 -6.172769927832E-02
C15 -2.515924591296E-01  3.973077203904E-01 -2.134817088629E-02
C16  2.515924591296E-01 -3.973077203904E-01  2.134817088629E-02
C17 -8.107578730024E-02  3.560428596750E-01 -6.575462559748E-02
C18  8.107578730024E-02 -3.560428596750E-01  6.575462559748E-02
C19  5.765668280252E-02  2.534905369901E-01 -3.014308797132E-02
C20 -5.765668280252E-02 -2.534905369901E-01  3.014308797132E-02
C21  2.334371045456E-01  2.099226418480E-01 -7.327843581839E-02
C22 -2.334371045456E-01 -2.099226418480E-01  7.327843581839E-02
C23  3.682897810601E-01  1.076869818198E-01 -3.770170393457E-02
C24 -3.682897810601E-01 -1.076869818198E-01  3.770170393457E-02
C25  3.998951321776E-01 -1.326252871531E-01  1.610375418877E-01
C26 -3.998951321776E-01  1.326252871531E-01 -1.610375418877E-01
C27  3.483982826248E-01 -1.989000735784E-01  2.273763473125E-01
C28 -3.483982826248E-01  1.989000735784E-01 -2.273763473125E-01
C29  3.285002877259E-01  4.530441380981E-01  3.147621059039E-01
C30 -3.285002877259E-01 -4.530441380981E-01 -3.147621059039E-01
C31  2.323572787908E-01  3.513019485548E-01  2.494605144191E-01
C32 -2.323572787908E-01 -3.513019485548E-01 -2.494605144191E-01
C33 -4.575517079232E-01  4.292114091935E-01  2.959010611967E-01
C34  4.575517079232E-01 -4.292114091935E-01 -2.959010611967E-01
C35  3.513306110920E-01 -1.899141641747E-01  4.144299883264E-01
C36 -3.513306110920E-01  1.899141641747E-01 -4.144299883264E-01
C37  3.274708028944E-01 -2.854862798074E-01  4.967430605326E-01
C38 -3.274708028944E-01  2.854862798074E-01 -4.967430605326E-01
C39  2.788952391931E-01  8.332606257836E-04  4.275311073026E-01
C40 -2.788952391931E-01 -8.332606257836E-04 -4.275311073026E-01
C41 -1.806294714990E-02 -2.836066723360E-01  3.300697909820E-01
C42  1.806294714990E-02  2.836066723360E-01 -3.300697909820E-01
C43 -1.024894845339E-01 -3.440500459842E-01  4.157101550078E-01
C44  1.024894845339E-01  3.440500459842E-01 -4.157101550078E-01
C45 -1.011949939837E-01 -1.048559823751E-01  3.101185068522E-01
C46  1.011949939837E-01  1.048559823751E-01 -3.101185068522E-01
H47  1.076173526103E-01  4.277576717651E-02  1.509964206354E-01
H48 -1.076173526103E-01 -4.277576717651E-02 -1.509964206354E-01
H49 -2.037349693143E-01  1.920939796797E-01  1.606903327168E-01
H50  2.037349693143E-01 -1.920939796797E-01 -1.606903327168E-01
H51 -4.344290267877E-01  3.706207227189E-01  9.582923637673E-02
H52  4.344290267877E-01 -3.706207227189E-01 -9.582923637673E-02
H53 -3.561769072489E-01  4.750661835298E-01 -4.919781748666E-02
H54  3.561769072489E-01 -4.750661835298E-01  4.919781748666E-02
H55 -4.691488596888E-02  4.014059877277E-01 -1.289506606957E-01
H56  4.691488596888E-02 -4.014059877277E-01  1.289506606957E-01
H57  2.693919736781E-01  2.559779418108E-01 -1.362780615782E-01
H58 -2.693919736781E-01 -2.559779418108E-01  1.362780615782E-01
H59  2.853640177654E-01  4.010288601934E-01  3.770311252609E-01
H60 -2.853640177654E-01 -4.010288601934E-01 -3.770311252609E-01
H61  2.577975983930E-01  4.074700272607E-01  1.872969077737E-01
H62 -2.577975983930E-01 -4.074700272607E-01 -1.872969077737E-01
H63  7.964881898432E-02  3.496324525816E-01  2.661853912333E-01
H64 -7.964881898432E-02 -3.496324525816E-01 -2.661853912333E-01
H65  2.872377160243E-01  2.144880931995E-01  2.422808145725E-01
H66 -2.872377160243E-01 -2.144880931995E-01 -2.422808145725E-01
H67 -4.132812842768E-01  2.893757811008E-01  2.914924986081E-01
H68  4.132812842768E-01 -2.893757811008E-01 -2.914924986081E-01
H69 -3.853495990252E-01  4.913437497038E-01  3.447214347189E-01
H70  3.853495990252E-01 -4.913437497038E-01 -3.447214347189E-01
H71 -4.071091890530E-01  4.858838227579E-01  2.358854449444E-01
H72  4.071091890530E-01 -4.858838227579E-01 -2.358854449444E-01
H73 -4.972509033888E-01 -1.901498034954E-01  3.920911627438E-01
H74  4.972509033888E-01  1.901498034954E-01 -3.920911627438E-01
H75  4.119980560310E-01 -2.278632524267E-01 -4.574537301407E-01
H76 -4.119980560310E-01  2.278632524267E-01  4.574537301407E-01
H77  3.694849168487E-01 -4.248867471140E-01  4.877351645224E-01
H78 -3.694849168487E-01  4.248867471140E-01 -4.877351645224E-01
H79  1.810089878657E-01 -2.757760823453E-01 -4.739881693203E-01
H80 -1.810089878657E-01  2.757760823453E-01  4.739881693203E-01
H81  1.270298837817E-01  9.739514676557E-03  4.480538355244E-01
H82 -1.270298837817E-01 -9.739514676557E-03 -4.480538355244E-01
H83  3.038002234996E-01  7.304400050505E-02  3.697193803413E-01
H84 -3.038002234996E-01 -7.304400050505E-02 -3.697193803413E-01
H85  3.468672957697E-01  6.806138692510E-02  4.766648082463E-01
H86 -3.468672957697E-01 -6.806138692510E-02 -4.766648082463E-01
H87 -5.195007989201E-02 -3.787017444234E-01  2.815013684040E-01
H88  5.195007989201E-02  3.787017444234E-01 -2.815013684040E-01
H89 -4.909260994436E-02 -4.758309797582E-01  4.279420343705E-01
H90  4.909260994436E-02  4.758309797582E-01 -4.279420343705E-01
H91 -2.562560111549E-01 -3.461396963567E-01  4.205896346547E-01
H92  2.562560111549E-01  3.461396963567E-01 -4.205896346547E-01
H93 -6.967421563051E-02 -2.553754057787E-01  4.664774049215E-01
H94  6.967421563051E-02  2.553754057787E-01 -4.664774049215E-01
H95 -2.967377351572E-02 -5.837452529139E-02  2.515400010172E-01
H96  2.967377351572E-02  5.837452529139E-02 -2.515400010172E-01
H97 -8.987277469115E-02 -5.817689995543E-03  3.601634953149E-01
H98  8.987277469115E-02  5.817689995543E-03 -3.601634953149E-01
H99 -2.509293761429E-01 -1.119942106689E-01  3.023256486237E-01
H100  2.509293761429E-01  1.119942106689E-01 -3.023256486237E-01


#===END

data_OPT_STEP_74

_symmetry_space_group_name_H-M 'P 1'
_cell_length_a      7.15709465
_cell_length_b      7.63175938
_cell_length_c     15.99545763
_cell_angle_alpha   92.065714
_cell_angle_beta   83.084759
_cell_angle_gamma   87.540576

loop_
_atom_site_label
_atom_site_fract_x
_atom_site_fract_y
_atom_site_fract_z
SI1  2.497236890349E-01 -3.047209695406E-01  3.235153198184E-01
SI2 -2.497236890349E-01  3.047209695406E-01 -3.235153198184E-01
C3  4.523445552823E-01 -6.282060507619E-02  8.167852762918E-02
C4 -4.523445552823E-01  6.282060507619E-02 -8.167852762918E-02
C5  3.212169383118E-01  4.487287696682E-02  4.558133057665E-02
C6 -3.212169383118E-01 -4.487287696682E-02 -4.558133057665E-02
C7  1.430045098992E-01  9.100906114463E-02  8.858833454194E-02
C8 -1.430045098992E-01 -9.100906114463E-02 -8.858833454194E-02
C9  1.232462484539E-02  1.941857214899E-01  5.378980631069E-02
C10 -1.232462484539E-02 -1.941857214899E-01 -5.378980631069E-02
C11 -1.687068848614E-01  2.405128811139E-01  9.810865846070E-02
C12  1.687068848614E-01 -2.405128811139E-01 -9.810865846070E-02
C13 -2.961821024515E-01  3.390279942093E-01  6.171787833270E-02
C14  2.961821024515E-01 -3.390279942093E-01 -6.171787833270E-02
C15 -2.513865123133E-01  3.971629020070E-01 -2.138314143380E-02
C16  2.513865123133E-01 -3.971629020070E-01  2.138314143380E-02
C17 -8.082414447436E-02  3.560304707632E-01 -6.579230213153E-02
C18  8.082414447436E-02 -3.560304707632E-01  6.579230213153E-02
C19  5.786649288173E-02  2.535578778068E-01 -3.014906627831E-02
C20 -5.786649288173E-02 -2.535578778068E-01  3.014906627831E-02
C21  2.336329739764E-01  2.100135799832E-01 -7.328789014542E-02
C22 -2.336329739764E-01 -2.100135799832E-01  7.328789014542E-02
C23  3.683988273532E-01  1.077591507857E-01 -3.770065352360E-02
C24 -3.683988273532E-01 -1.077591507857E-01  3.770065352360E-02
C25  3.996695078594E-01 -1.327527919446E-01  1.610568520400E-01
C26 -3.996695078594E-01  1.327527919446E-01 -1.610568520400E-01
C27  3.480461351095E-01 -1.991169816061E-01  2.273791220706E-01
C28 -3.480461351095E-01  1.991169816061E-01 -2.273791220706E-01
C29  3.287858380279E-01  4.529600640910E-01  3.148193172164E-01
C30 -3.287858380279E-01 -4.529600640910E-01 -3.148193172164E-01
C31  2.327844898779E-01  3.511483893248E-01  2.495432379697E-01
C32 -2.327844898779E-01 -3.511483893248E-01 -2.495432379697E-01
C33 -4.572929052953E-01  4.295183180755E-01  2.958753812763E-01
C34  4.572929052953E-01 -4.295183180755E-01 -2.958753812763E-01
C35  3.514586529570E-01 -1.900837996504E-01  4.144072171141E-01
C36 -3.514586529570E-01  1.900837996504E-01 -4.144072171141E-01
C37  3.278344776097E-01 -2.855361612147E-01  4.967765693561E-01
C38 -3.278344776097E-01  2.855361612147E-01 -4.967765693561E-01
C39  2.788563739960E-01  5.574605660812E-04  4.275047830747E-01
C40 -2.788563739960E-01 -5.574605660812E-04 -4.275047830747E-01
C41 -1.806435690336E-02 -2.839348793232E-01  3.303573736226E-01
C42  1.806435690336E-02  2.839348793232E-01 -3.303573736226E-01
C43 -1.021928199222E-01 -3.436861802693E-01  4.162012862840E-01
C44  1.021928199222E-01  3.436861802693E-01 -4.162012862840E-01
C45 -1.010085032522E-01 -1.053736655480E-01  3.101082188475E-01
C46  1.010085032522E-01  1.053736655480E-01 -3.101082188475E-01
H47  1.076586833568E-01  4.283399933122E-02  1.510495569911E-01
H48 -1.076586833568E-01 -4.283399933122E-02 -1.510495569911E-01
H49 -2.036625610650E-01  1.919526793411E-01  1.607202224372E-01
H50  2.036625610650E-01 -1.919526793411E-01 -1.607202224372E-01
H51 -4.343728513203E-01  3.702857563867E-01  9.579817127142E-02
H52  4.343728513203E-01 -3.702857563867E-01 -9.579817127142E-02
H53 -3.559993675032E-01  4.747798853893E-01 -4.925417100391E-02
H54  3.559993675032E-01 -4.747798853893E-01  4.925417100391E-02
H55 -4.661885474468E-02  4.014322097463E-01 -1.290046221593E-01
H56  4.661885474468E-02 -4.014322097463E-01  1.290046221593E-01
H57  2.696108313850E-01  2.559657287589E-01 -1.363344756097E-01
H58 -2.696108313850E-01 -2.559657287589E-01  1.363344756097E-01
H59  2.858529376039E-01  4.008846403457E-01  3.771124535941E-01
H60 -2.858529376039E-01 -4.008846403457E-01 -3.771124535941E-01
H61  2.579411441558E-01  4.074339720632E-01  1.873864648223E-01
H62 -2.579411441558E-01 -4.074339720632E-01 -1.873864648223E-01
H63  8.014111345084E-02  3.491948375687E-01  2.663407671139E-01
H64 -8.014111345084E-02 -3.491948375687E-01 -2.663407671139E-01
H65  2.879396643457E-01  2.144831045571E-01  2.422907754214E-01
H66 -2.879396643457E-01 -2.144831045571E-01 -2.422907754214E-01
H67 -4.126912396764E-01  2.897900561737E-01  2.915723809359E-01
H68  4.126912396764E-01 -2.897900561737E-01 -2.915723809359E-01
H69 -3.851671042552E-01  4.920155954399E-01  3.446126309559E-01
H70  3.851671042552E-01 -4.920155954399E-01 -3.446126309559E-01
H71 -4.071170764014E-01  4.860592301134E-01  2.357714543662E-01
H72  4.071170764014E-01 -4.860592301134E-01 -2.357714543662E-01
H73 -4.971777002988E-01 -1.902467507860E-01  3.919488054229E-01
H74  4.971777002988E-01  1.902467507860E-01 -3.919488054229E-01
H75  4.123884492021E-01 -2.278677485250E-01 -4.574704929154E-01
H76 -4.123884492021E-01  2.278677485250E-01  4.574704929154E-01
H77  3.698594288977E-01 -4.248853463141E-01  4.878160198052E-01
H78 -3.698594288977E-01  4.248853463141E-01 -4.878160198052E-01
H79  1.814501490504E-01 -2.759045133531E-01 -4.738657353594E-01
H80 -1.814501490504E-01  2.759045133531E-01  4.738657353594E-01
H81  1.270296817434E-01  9.271295129370E-03  4.480610324048E-01
H82 -1.270296817434E-01 -9.271295129370E-03 -4.480610324048E-01
H83  3.036572073905E-01  7.277428137240E-02  3.696733614274E-01
H84 -3.036572073905E-01 -7.277428137240E-02 -3.696733614274E-01
H85  3.467514270672E-01  6.781708915137E-02  4.766157386384E-01
H86 -3.467514270672E-01 -6.781708915137E-02 -4.766157386384E-01
H87 -5.219331671267E-02 -3.793529914932E-01  2.820047072874E-01
H88  5.219331671267E-02  3.793529914932E-01 -2.820047072874E-01
H89 -4.871941488118E-02 -4.752742833763E-01  4.286202571765E-01
H90  4.871941488118E-02  4.752742833763E-01 -4.286202571765E-01
H91 -2.559553284336E-01 -3.458156762445E-01  4.212916306808E-01
H92  2.559553284336E-01  3.458156762445E-01 -4.212916306808E-01
H93 -6.915440460665E-02 -2.547021197749E-01  4.667640388444E-01
H94  6.915440460665E-02  2.547021197749E-01 -4.667640388444E-01
H95 -3.012085138957E-02 -5.978554586654E-02  2.511076633624E-01
H96  3.012085138957E-02  5.978554586654E-02 -2.511076633624E-01
H97 -8.870517350644E-02 -5.703099111620E-03  3.598023191324E-01
H98  8.870517350644E-02  5.703099111620E-03 -3.598023191324E-01
H99 -2.510262677861E-01 -1.124174101154E-01  3.028103034959E-01
H100  2.510262677861E-01  1.124174101154E-01 -3.028103034959E-01


#===END

data_OPT_STEP_75

_symmetry_space_group_name_H-M 'P 1'
_cell_length_a      7.15960085
_cell_length_b      7.63481670
_cell_length_c     15.98913481
_cell_angle_alpha   92.036007
_cell_angle_beta   83.067629
_cell_angle_gamma   87.567479

loop_
_atom_site_label
_atom_site_fract_x
_atom_site_fract_y
_atom_site_fract_z
SI1  2.497678642541E-01 -3.052435440807E-01  3.236396456670E-01
SI2 -2.497678642541E-01  3.052435440807E-01 -3.236396456670E-01
C3  4.522573126656E-01 -6.285474034205E-02  8.172857724510E-02
C4 -4.522573126656E-01  6.285474034205E-02 -8.172857724510E-02
C5  3.213485546331E-01  4.497016344748E-02  4.561120734718E-02
C6 -3.213485546331E-01 -4.497016344748E-02 -4.561120734718E-02
C7  1.432666762478E-01  9.122266425513E-02  8.866919303573E-02
C8 -1.432666762478E-01 -9.122266425513E-02 -8.866919303573E-02
C9  1.270092893443E-02  1.943445162944E-01  5.382988283539E-02
C10 -1.270092893443E-02 -1.943445162944E-01 -5.382988283539E-02
C11 -1.683012400231E-01  2.405440627557E-01  9.816360530172E-02
C12  1.683012400231E-01 -2.405440627557E-01 -9.816360530172E-02
C13 -2.957603629996E-01  3.388539354141E-01  6.171933668703E-02
C14  2.957603629996E-01 -3.388539354141E-01 -6.171933668703E-02
C15 -2.509468327456E-01  3.969209515238E-01 -2.146038258804E-02
C16  2.509468327456E-01 -3.969209515238E-01  2.146038258804E-02
C17 -8.038479406678E-02  3.559526006721E-01 -6.588975049560E-02
C18  8.038479406678E-02 -3.559526006721E-01  6.588975049560E-02
C19  5.826432895654E-02  2.536538128981E-01 -3.018161450181E-02
C20 -5.826432895654E-02 -2.536538128981E-01  3.018161450181E-02
C21  2.339356703458E-01  2.100910473358E-01 -7.333451493816E-02
C22 -2.339356703458E-01 -2.100910473358E-01  7.333451493816E-02
C23  3.685749655085E-01  1.078282860621E-01 -3.771743006459E-02
C24 -3.685749655085E-01 -1.078282860621E-01  3.771743006459E-02
C25  3.994230203287E-01 -1.328931331317E-01  1.611110755147E-01
C26 -3.994230203287E-01  1.328931331317E-01 -1.611110755147E-01
C27  3.476880697548E-01 -1.994486947892E-01  2.274062234999E-01
C28 -3.476880697548E-01  1.994486947892E-01 -2.274062234999E-01
C29  3.294151741868E-01  4.527738404181E-01  3.148937888232E-01
C30 -3.294151741868E-01 -4.527738404181E-01 -3.148937888232E-01
C31  2.337376705830E-01  3.508499469363E-01  2.495983226221E-01
C32 -2.337376705830E-01 -3.508499469363E-01 -2.495983226221E-01
C33 -4.567165299279E-01  4.300726761399E-01  2.958885608490E-01
C34  4.567165299279E-01 -4.300726761399E-01 -2.958885608490E-01
C35  3.516159255829E-01 -1.903494518455E-01  4.144523393133E-01
C36 -3.516159255829E-01  1.903494518455E-01 -4.144523393133E-01
C37  3.283020367335E-01 -2.856582349145E-01  4.969194934333E-01
C38 -3.283020367335E-01  2.856582349145E-01 -4.969194934333E-01
C39  2.787681014050E-01  1.214754964885E-04  4.274343948354E-01
C40 -2.787681014050E-01 -1.214754964885E-04 -4.274343948354E-01
C41 -1.798527194121E-02 -2.848513271151E-01  3.307007237054E-01
C42  1.798527194121E-02  2.848513271151E-01 -3.307007237054E-01
C43 -1.017225393461E-01 -3.428656567068E-01  4.169583303137E-01
C44  1.017225393461E-01  3.428656567068E-01 -4.169583303137E-01
C45 -1.007134083095E-01 -1.068349840418E-01  3.095913013796E-01
C46  1.007134083095E-01  1.068349840418E-01 -3.095913013796E-01
H47  1.079455067648E-01  4.311005905604E-02  1.511722877233E-01
H48 -1.079455067648E-01 -4.311005905604E-02 -1.511722877233E-01
H49 -2.032421626990E-01  1.919577534430E-01  1.608025883297E-01
H50  2.032421626990E-01 -1.919577534430E-01 -1.608025883297E-01
H51 -4.340300128541E-01  3.699672896865E-01  9.574317803900E-02
H52  4.340300128541E-01 -3.699672896865E-01 -9.574317803900E-02
H53 -3.556742141395E-01  4.742773306394E-01 -4.935388492937E-02
H54  3.556742141395E-01 -4.742773306394E-01  4.935388492937E-02
H55 -4.620721311261E-02  4.013131012393E-01 -1.291451681863E-01
H56  4.620721311261E-02 -4.013131012393E-01  1.291451681863E-01
H57  2.698800964834E-01  2.558409287969E-01 -1.364613803124E-01
H58 -2.698800964834E-01 -2.558409287969E-01  1.364613803124E-01
H59  2.867460404053E-01  4.005096657146E-01  3.771976310707E-01
H60 -2.867460404053E-01 -4.005096657146E-01 -3.771976310707E-01
H61  2.585527599212E-01  4.073000030254E-01  1.874530208304E-01
H62 -2.585527599212E-01 -4.073000030254E-01 -1.874530208304E-01
H63  8.120651051148E-02  3.484026323558E-01  2.664480059359E-01
H64 -8.120651051148E-02 -3.484026323558E-01 -2.664480059359E-01
H65  2.892527145779E-01  2.144434054153E-01  2.422519957241E-01
H66 -2.892527145779E-01 -2.144434054153E-01 -2.422519957241E-01
H67 -4.116081768298E-01  2.905769555617E-01  2.915839622187E-01
H68  4.116081768298E-01 -2.905769555617E-01 -2.915839622187E-01
H69 -3.848566331070E-01  4.928154957326E-01  3.446142266855E-01
H70  3.848566331070E-01 -4.928154957326E-01 -3.446142266855E-01
H71 -4.068303467428E-01  4.867242782298E-01  2.357519913301E-01
H72  4.068303467428E-01 -4.867242782298E-01 -2.357519913301E-01
H73 -4.971067748015E-01 -1.903707965716E-01  3.919125872543E-01
H74  4.971067748015E-01  1.903707965716E-01 -3.919125872543E-01
H75  4.128277473429E-01 -2.278504537302E-01 -4.574151181348E-01
H76 -4.128277473429E-01  2.278504537302E-01  4.574151181348E-01
H77  3.704664105799E-01 -4.249397310797E-01  4.880905563272E-01
H78 -3.704664105799E-01  4.249397310797E-01 -4.880905563272E-01
H79  1.820195530250E-01 -2.763266028519E-01 -4.736467418151E-01
H80 -1.820195530250E-01  2.763266028519E-01  4.736467418151E-01
H81  1.269562427711E-01  8.482650779453E-03  4.478369261676E-01
H82 -1.269562427711E-01 -8.482650779453E-03 -4.478369261676E-01
H83  3.037509499706E-01  7.226594936101E-02  3.695537832853E-01
H84 -3.037509499706E-01 -7.226594936101E-02 -3.695537832853E-01
H85  3.462796875546E-01  6.748439463795E-02  4.766106936751E-01
H86 -3.462796875546E-01 -6.748439463795E-02 -4.766106936751E-01
H87 -5.239446991646E-02 -3.812542575742E-01  2.828467722555E-01
H88  5.239446991646E-02  3.812542575742E-01 -2.828467722555E-01
H89 -4.772554660805E-02 -4.738761822026E-01  4.300900713791E-01
H90  4.772554660805E-02  4.738761822026E-01 -4.300900713791E-01
H91 -2.554119961232E-01 -3.456099698027E-01  4.221957414073E-01
H92  2.554119961232E-01  3.456099698027E-01 -4.221957414073E-01
H93 -6.889975024234E-02 -2.524869762692E-01  4.670523329327E-01
H94  6.889975024234E-02  2.524869762692E-01 -4.670523329327E-01
H95 -3.118349485271E-02 -6.328385385234E-02  2.497488058985E-01
H96  3.118349485271E-02  6.328385385234E-02 -2.497488058985E-01
H97 -8.647235270868E-02 -5.612287489129E-03  3.584081294989E-01
H98  8.647235270868E-02  5.612287489129E-03 -3.584081294989E-01
H99 -2.512451948341E-01 -1.138925817074E-01  3.032505541210E-01
H100  2.512451948341E-01  1.138925817074E-01 -3.032505541210E-01


#===END

data_OPT_STEP_76

_symmetry_space_group_name_H-M 'P 1'
_cell_length_a      7.16142430
_cell_length_b      7.63932652
_cell_length_c     15.98283019
_cell_angle_alpha   92.003761
_cell_angle_beta   83.061752
_cell_angle_gamma   87.584513

loop_
_atom_site_label
_atom_site_fract_x
_atom_site_fract_y
_atom_site_fract_z
SI1  2.498701147696E-01 -3.057830020929E-01  3.237307631731E-01
SI2 -2.498701147696E-01  3.057830020929E-01 -3.237307631731E-01
C3  4.522168488555E-01 -6.287615759268E-02  8.178942989735E-02
C4 -4.522168488555E-01  6.287615759268E-02 -8.178942989735E-02
C5  3.214769098751E-01  4.508539127655E-02  4.565787254332E-02
C6 -3.214769098751E-01 -4.508539127655E-02 -4.565787254332E-02
C7  1.435081453497E-01  9.145199839850E-02  8.876406137256E-02
C8 -1.435081453497E-01 -9.145199839850E-02 -8.876406137256E-02
C9  1.300757446054E-02  1.944403411365E-01  5.385815988713E-02
C10 -1.300757446054E-02 -1.944403411365E-01 -5.385815988713E-02
C11 -1.679818984861E-01  2.405417268618E-01  9.819120907222E-02
C12  1.679818984861E-01 -2.405417268618E-01 -9.819120907222E-02
C13 -2.954140072270E-01  3.386955303717E-01  6.169025808546E-02
C14  2.954140072270E-01 -3.386955303717E-01 -6.169025808546E-02
C15 -2.505698382919E-01  3.967249643714E-01 -2.154251446042E-02
C16  2.505698382919E-01 -3.967249643714E-01  2.154251446042E-02
C17 -8.000504771235E-02  3.558768466524E-01 -6.597725475989E-02
C18  8.000504771235E-02 -3.558768466524E-01  6.597725475989E-02
C19  5.858583476596E-02  2.536940917571E-01 -3.021312345151E-02
C20 -5.858583476596E-02 -2.536940917571E-01  3.021312345151E-02
C21  2.341893896498E-01  2.101768023911E-01 -7.335957585449E-02
C22 -2.341893896498E-01 -2.101768023911E-01  7.335957585449E-02
C23  3.687222780830E-01  1.079043692272E-01 -3.771857100589E-02
C24 -3.687222780830E-01 -1.079043692272E-01  3.771857100589E-02
C25  3.992866757579E-01 -1.330472651995E-01  1.611696385301E-01
C26 -3.992866757579E-01  1.330472651995E-01 -1.611696385301E-01
C27  3.473936595189E-01 -1.998270268569E-01  2.274270165989E-01
C28 -3.473936595189E-01  1.998270268569E-01 -2.274270165989E-01
C29  3.303218096997E-01  4.526185001641E-01  3.149994657474E-01
C30 -3.303218096997E-01 -4.526185001641E-01 -3.149994657474E-01
C31  2.349719039044E-01  3.504173742142E-01  2.496944075312E-01
C32 -2.349719039044E-01 -3.504173742142E-01 -2.496944075312E-01
C33 -4.558115789766E-01  4.308080186070E-01  2.959448876809E-01
C34  4.558115789766E-01 -4.308080186070E-01 -2.959448876809E-01
C35  3.516790657310E-01 -1.905567663632E-01  4.144818791100E-01
C36 -3.516790657310E-01  1.905567663632E-01 -4.144818791100E-01
C37  3.285682972395E-01 -2.856028834223E-01  4.970541693070E-01
C38 -3.285682972395E-01  2.856028834223E-01 -4.970541693070E-01
C39  2.786063865819E-01 -2.816823065809E-04  4.273558541663E-01
C40 -2.786063865819E-01  2.816823065809E-04 -4.273558541663E-01
C41 -1.786132053631E-02 -2.859061591136E-01  3.309321227740E-01
C42  1.786132053631E-02  2.859061591136E-01 -3.309321227740E-01
C43 -1.012290948562E-01 -3.422791716256E-01  4.176008558358E-01
C44  1.012290948562E-01  3.422791716256E-01 -4.176008558358E-01
C45 -1.004125260912E-01 -1.084875750379E-01  3.089892067141E-01
C46  1.004125260912E-01  1.084875750379E-01 -3.089892067141E-01
H47  1.082499223456E-01  4.351934488541E-02  1.513429705809E-01
H48 -1.082499223456E-01 -4.351934488541E-02 -1.513429705809E-01
H49 -2.029179762593E-01  1.920101893305E-01  1.608777872487E-01
H50  2.029179762593E-01 -1.920101893305E-01 -1.608777872487E-01
H51 -4.337590878037E-01  3.697294443324E-01  9.564372045556E-02
H52  4.337590878037E-01 -3.697294443324E-01 -9.564372045556E-02
H53 -3.553484225925E-01  4.738955976134E-01 -4.947161066421E-02
H54  3.553484225925E-01 -4.738955976134E-01  4.947161066421E-02
H55 -4.584361526793E-02  4.011450602223E-01 -1.292856589370E-01
H56  4.584361526793E-02 -4.011450602223E-01  1.292856589370E-01
H57  2.701097723789E-01  2.557909365436E-01 -1.365472030217E-01
H58 -2.701097723789E-01 -2.557909365436E-01  1.365472030217E-01
H59  2.879604584901E-01  4.002010959848E-01  3.773393102384E-01
H60 -2.879604584901E-01 -4.002010959848E-01 -3.773393102384E-01
H61  2.592032728585E-01  4.071483798157E-01  1.875589215592E-01
H62 -2.592032728585E-01 -4.071483798157E-01 -1.875589215592E-01
H63  8.254338774568E-02  3.471781139001E-01  2.666428534852E-01
H64 -8.254338774568E-02 -3.471781139001E-01 -2.666428534852E-01
H65  2.911206802575E-01  2.143111057379E-01  2.422242364074E-01
H66 -2.911206802575E-01 -2.143111057379E-01 -2.422242364074E-01
H67 -4.100899903577E-01  2.915500472952E-01  2.918277843185E-01
H68  4.100899903577E-01 -2.915500472952E-01 -2.918277843185E-01
H69 -3.841731777131E-01  4.942265339540E-01  3.445760269897E-01
H70  3.841731777131E-01 -4.942265339540E-01 -3.445760269897E-01
H71 -4.063236990547E-01  4.872789044431E-01  2.356701415967E-01
H72  4.063236990547E-01 -4.872789044431E-01 -2.356701415967E-01
H73 -4.971144796486E-01 -1.904153107202E-01  3.918543362642E-01
H74  4.971144796486E-01  1.904153107202E-01 -3.918543362642E-01
H75  4.130212325855E-01 -2.275853273671E-01 -4.573093486066E-01
H76 -4.130212325855E-01  2.275853273671E-01  4.573093486066E-01
H77  3.708185602917E-01 -4.247896807666E-01  4.883346807720E-01
H78 -3.708185602917E-01  4.247896807666E-01 -4.883346807720E-01
H79  1.823590804870E-01 -2.765124699250E-01 -4.734702083301E-01
H80 -1.823590804870E-01  2.765124699250E-01  4.734702083301E-01
H81  1.268002520078E-01  7.759549687693E-03  4.476558834726E-01
H82 -1.268002520078E-01 -7.759549687693E-03 -4.476558834726E-01
H83  3.036834032034E-01  7.182118288852E-02  3.694316000914E-01
H84 -3.036834032034E-01 -7.182118288852E-02 -3.694316000914E-01
H85  3.458233480646E-01  6.715000018446E-02  4.765734700351E-01
H86 -3.458233480646E-01 -6.715000018446E-02 -4.765734700351E-01
H87 -5.250250341335E-02 -3.832043007319E-01  2.835435998183E-01
H88  5.250250341335E-02  3.832043007319E-01 -2.835435998183E-01
H89 -4.731889824306E-02 -4.728629769566E-01  4.312222549124E-01
H90  4.731889824306E-02  4.728629769566E-01 -4.312222549124E-01
H91 -2.548948702552E-01 -3.450269972426E-01  4.231054443529E-01
H92  2.548948702552E-01  3.450269972426E-01 -4.231054443529E-01
H93 -6.802066169377E-02 -2.511711112817E-01  4.672577034470E-01
H94  6.802066169377E-02  2.511711112817E-01 -4.672577034470E-01
H95 -3.213465553063E-02 -6.697920225270E-02  2.484256977588E-01
H96  3.213465553063E-02  6.697920225270E-02 -2.484256977588E-01
H97 -8.438259902327E-02 -5.930136648112E-03  3.569398057764E-01
H98  8.438259902327E-02  5.930136648112E-03 -3.569398057764E-01
H99 -2.513626900171E-01 -1.153783462949E-01  3.035212744109E-01
H100  2.513626900171E-01  1.153783462949E-01 -3.035212744109E-01


#===END

data_OPT_STEP_77

_symmetry_space_group_name_H-M 'P 1'
_cell_length_a      7.16441871
_cell_length_b      7.64973845
_cell_length_c     15.96855759
_cell_angle_alpha   91.945046
_cell_angle_beta   83.091514
_cell_angle_gamma   87.626454

loop_
_atom_site_label
_atom_site_fract_x
_atom_site_fract_y
_atom_site_fract_z
SI1  2.503893423162E-01 -3.067880916695E-01  3.239313699104E-01
SI2 -2.503893423162E-01  3.067880916695E-01 -3.239313699104E-01
C3  4.522676061469E-01 -6.285389265870E-02  8.192925626541E-02
C4 -4.522676061469E-01  6.285389265870E-02 -8.192925626541E-02
C5  3.217624287967E-01  4.529385490278E-02  4.575716882155E-02
C6 -3.217624287967E-01 -4.529385490278E-02 -4.575716882155E-02
C7  1.440948246415E-01  9.190507296807E-02  8.895876403364E-02
C8 -1.440948246415E-01 -9.190507296807E-02 -8.895876403364E-02
C9  1.364673520441E-02  1.946538909445E-01  5.393902256364E-02
C10 -1.364673520441E-02 -1.946538909445E-01 -5.393902256364E-02
C11 -1.671831232904E-01  2.406920226837E-01  9.829475846511E-02
C12  1.671831232904E-01 -2.406920226837E-01 -9.829475846511E-02
C13 -2.946016216057E-01  3.385429982417E-01  6.167737877815E-02
C14  2.946016216057E-01 -3.385429982417E-01 -6.167737877815E-02
C15 -2.498778945816E-01  3.963692681988E-01 -2.169110047860E-02
C16  2.498778945816E-01 -3.963692681988E-01  2.169110047860E-02
C17 -7.943577385990E-02  3.556674081207E-01 -6.615005238846E-02
C18  7.943577385990E-02 -3.556674081207E-01  6.615005238846E-02
C19  5.908619018373E-02  2.537250722452E-01 -3.026789188667E-02
C20 -5.908619018373E-02 -2.537250722452E-01  3.026789188667E-02
C21  2.345305625050E-01  2.102695041134E-01 -7.341342544733E-02
C22 -2.345305625050E-01 -2.102695041134E-01  7.341342544733E-02
C23  3.689175904456E-01  1.079784205864E-01 -3.772959361215E-02
C24 -3.689175904456E-01 -1.079784205864E-01  3.772959361215E-02
C25  3.993195447364E-01 -1.332587768796E-01  1.613262759669E-01
C26 -3.993195447364E-01  1.332587768796E-01 -1.613262759669E-01
C27  3.472624594077E-01 -2.004865853139E-01  2.275247808218E-01
C28 -3.472624594077E-01  2.004865853139E-01 -2.275247808218E-01
C29  3.322818576788E-01  4.524182496375E-01  3.151622631991E-01
C30 -3.322818576788E-01 -4.524182496375E-01 -3.151622631991E-01
C31  2.376608310247E-01  3.500713463110E-01  2.496831469014E-01
C32 -2.376608310247E-01 -3.500713463110E-01 -2.496831469014E-01
C33 -4.538946026972E-01  4.321298023311E-01  2.961199714215E-01
C34  4.538946026972E-01 -4.321298023311E-01 -2.961199714215E-01
C35  3.518961998840E-01 -1.909210513265E-01  4.146385997492E-01
C36 -3.518961998840E-01  1.909210513265E-01 -4.146385997492E-01
C37  3.291771394997E-01 -2.854575214688E-01  4.974353588265E-01
C38 -3.291771394997E-01  2.854575214688E-01 -4.974353588265E-01
C39  2.782886465370E-01 -1.106632703170E-03  4.271767540296E-01
C40 -2.782886465370E-01  1.106632703170E-03 -4.271767540296E-01
C41 -1.732470873142E-02 -2.880720332507E-01  3.312238914377E-01
C42  1.732470873142E-02  2.880720332507E-01 -3.312238914377E-01
C43 -1.001525241240E-01 -3.411120384136E-01  4.186246483044E-01
C44  1.001525241240E-01  3.411120384136E-01 -4.186246483044E-01
C45 -9.987125937165E-02 -1.120880661956E-01  3.075962201566E-01
C46  9.987125937165E-02  1.120880661956E-01 -3.075962201566E-01
H47  1.090974680930E-01  4.442409036950E-02  1.517053857159E-01
H48 -1.090974680930E-01 -4.442409036950E-02 -1.517053857159E-01
H49 -2.019694107768E-01  1.923655926560E-01  1.610898956210E-01
H50  2.019694107768E-01 -1.923655926560E-01 -1.610898956210E-01
H51 -4.329458611212E-01  3.695933562149E-01  9.555494542862E-02
H52  4.329458611212E-01 -3.695933562149E-01 -9.555494542862E-02
H53 -3.547710865790E-01  4.731889863744E-01 -4.969151093030E-02
H54  3.547710865790E-01 -4.731889863744E-01  4.969151093030E-02
H55 -4.542306416362E-02  4.007096065916E-01 -1.295622691350E-01
H56  4.542306416362E-02 -4.007096065916E-01  1.295622691350E-01
H57  2.703275332319E-01  2.556785999376E-01 -1.367096833744E-01
H58 -2.703275332319E-01 -2.556785999376E-01  1.367096833744E-01
H59  2.903383377542E-01  3.995606218581E-01  3.775011702323E-01
H60 -2.903383377542E-01 -3.995606218581E-01 -3.775011702323E-01
H61  2.609884084970E-01  4.075120936219E-01  1.876276172066E-01
H62 -2.609884084970E-01 -4.075120936219E-01 -1.876276172066E-01
H63  8.543681125488E-02  3.454268686257E-01  2.667140385695E-01
H64 -8.543681125488E-02 -3.454268686257E-01 -2.667140385695E-01
H65  2.949217758354E-01  2.145930494944E-01  2.418855449466E-01
H66 -2.949217758354E-01 -2.145930494944E-01 -2.418855449466E-01
H67 -4.071719726951E-01  2.933626439362E-01  2.921927251685E-01
H68  4.071719726951E-01 -2.933626439362E-01 -2.921927251685E-01
H69 -3.827320607960E-01  4.963430789642E-01  3.447012943474E-01
H70  3.827320607960E-01 -4.963430789642E-01 -3.447012943474E-01
H71 -4.049733361540E-01  4.885261081129E-01  2.357014968604E-01
H72  4.049733361540E-01 -4.885261081129E-01 -2.357014968604E-01
H73 -4.969977669262E-01 -1.903923638534E-01  3.920003452195E-01
H74  4.969977669262E-01  1.903923638534E-01 -3.920003452195E-01
H75  4.133460748924E-01 -2.268766965583E-01 -4.569652598279E-01
H76 -4.133460748924E-01  2.268766965583E-01  4.569652598279E-01
H77  3.719288234960E-01 -4.243421607857E-01  4.889784965552E-01
H78 -3.719288234960E-01  4.243421607857E-01 -4.889784965552E-01
H79  1.830680887698E-01 -2.770719111144E-01 -4.731017033771E-01
H80 -1.830680887698E-01  2.770719111144E-01  4.731017033771E-01
H81  1.264097947408E-01  6.356450022508E-03  4.470202210837E-01
H82 -1.264097947408E-01 -6.356450022508E-03 -4.470202210837E-01
H83  3.039358660095E-01  7.082706312932E-02  3.691677058826E-01
H84 -3.039358660095E-01 -7.082706312932E-02 -3.691677058826E-01
H85  3.445916360836E-01  6.651306789930E-02  4.766189646084E-01
H86 -3.445916360836E-01 -6.651306789930E-02 -4.766189646084E-01
H87 -5.219751736931E-02 -3.871566844494E-01  2.847418894668E-01
H88  5.219751736931E-02  3.871566844494E-01 -2.847418894668E-01
H89 -4.585596347708E-02 -4.706525445723E-01  4.334948419653E-01
H90  4.585596347708E-02  4.706525445723E-01 -4.334948419653E-01
H91 -2.537438517754E-01 -3.444453183173E-01  4.243211317338E-01
H92  2.537438517754E-01  3.444453183173E-01 -4.243211317338E-01
H93 -6.696739507913E-02 -2.478886326659E-01  4.674284320306E-01
H94  6.696739507913E-02  2.478886326659E-01 -4.674284320306E-01
H95 -3.382217263222E-02 -7.431690796882E-02  2.458688495880E-01
H96  3.382217263222E-02  7.431690796882E-02 -2.458688495880E-01
H97 -8.109768763590E-02 -7.106972459704E-03  3.539011969492E-01
H98  8.109768763590E-02  7.106972459704E-03 -3.539011969492E-01
H99 -2.514012719965E-01 -1.189641588791E-01  3.035344008961E-01
H100  2.514012719965E-01  1.189641588791E-01 -3.035344008961E-01


#===END

data_OPT_STEP_78

_symmetry_space_group_name_H-M 'P 1'
_cell_length_a      7.17987865
_cell_length_b      7.65275256
_cell_length_c     15.95710323
_cell_angle_alpha   91.847569
_cell_angle_beta   83.071015
_cell_angle_gamma   87.567452

loop_
_atom_site_label
_atom_site_fract_x
_atom_site_fract_y
_atom_site_fract_z
SI1  2.510888592357E-01 -3.074792907881E-01  3.242354540027E-01
SI2 -2.510888592357E-01  3.074792907881E-01 -3.242354540027E-01
C3  4.525136406011E-01 -6.290897727823E-02  8.213435421952E-02
C4 -4.525136406011E-01  6.290897727823E-02 -8.213435421952E-02
C5  3.222568687891E-01  4.554739253681E-02  4.592781871088E-02
C6 -3.222568687891E-01 -4.554739253681E-02 -4.592781871088E-02
C7  1.450044612443E-01  9.230903404694E-02  8.924644838552E-02
C8 -1.450044612443E-01 -9.230903404694E-02 -8.924644838552E-02
C9  1.458685259064E-02  1.947236030677E-01  5.405394645136E-02
C10 -1.458685259064E-02 -1.947236030677E-01 -5.405394645136E-02
C11 -1.660210177086E-01  2.405840217702E-01  9.841225847018E-02
C12  1.660210177086E-01 -2.405840217702E-01 -9.841225847018E-02
C13 -2.933778650466E-01  3.382576785634E-01  6.170551474995E-02
C14  2.933778650466E-01 -3.382576785634E-01 -6.170551474995E-02
C15 -2.488376063070E-01  3.959948538225E-01 -2.178216894590E-02
C16  2.488376063070E-01 -3.959948538225E-01  2.178216894590E-02
C17 -7.856663065890E-02  3.555599789390E-01 -6.627275443813E-02
C18  7.856663065890E-02 -3.555599789390E-01  6.627275443813E-02
C19  5.980430207540E-02  2.537895018489E-01 -3.026427978321E-02
C20 -5.980430207540E-02 -2.537895018489E-01  3.026427978321E-02
C21  2.349655519193E-01  2.105224500597E-01 -7.336695548030E-02
C22 -2.349655519193E-01 -2.105224500597E-01  7.336695548030E-02
C23  3.691574112070E-01  1.081266802473E-01 -3.766320250331E-02
C24 -3.691574112070E-01 -1.081266802473E-01  3.766320250331E-02
C25  3.998676589367E-01 -1.334845038880E-01  1.615642823787E-01
C26 -3.998676589367E-01  1.334845038880E-01 -1.615642823787E-01
C27  3.473309288012E-01 -2.008905161382E-01  2.277279462787E-01
C28 -3.473309288012E-01  2.008905161382E-01 -2.277279462787E-01
C29  3.347189349425E-01  4.522922967763E-01  3.153755464015E-01
C30 -3.347189349425E-01 -4.522922967763E-01 -3.153755464015E-01
C31  2.417958580265E-01  3.499813475912E-01  2.494682619212E-01
C32 -2.417958580265E-01 -3.499813475912E-01 -2.494682619212E-01
C33 -4.517704464125E-01  4.334381709397E-01  2.966549665348E-01
C34  4.517704464125E-01 -4.334381709397E-01 -2.966549665348E-01
C35  3.520916893035E-01 -1.906685072794E-01  4.147464325323E-01
C36 -3.520916893035E-01  1.906685072794E-01 -4.147464325323E-01
C37  3.290422819170E-01 -2.844725828055E-01  4.978304057486E-01
C38 -3.290422819170E-01  2.844725828055E-01 -4.978304057486E-01
C39  2.783284707877E-01 -8.347772855834E-04  4.266077049690E-01
C40 -2.783284707877E-01  8.347772855835E-04 -4.266077049690E-01
C41 -1.611059841327E-02 -2.898481176687E-01  3.313453482920E-01
C42  1.611059841327E-02  2.898481176687E-01 -3.313453482920E-01
C43 -9.916179677659E-02 -3.405280557425E-01  4.190426129558E-01
C44  9.916179677659E-02  3.405280557425E-01 -4.190426129558E-01
C45 -9.861840952936E-02 -1.149507257361E-01  3.061403606271E-01
C46  9.861840952936E-02  1.149507257361E-01 -3.061403606271E-01
H47  1.102658841296E-01  4.486603677147E-02  1.520666314504E-01
H48 -1.102658841296E-01 -4.486603677147E-02 -1.520666314504E-01
H49 -2.005150851115E-01  1.924820236442E-01  1.613328739823E-01
H50  2.005150851115E-01 -1.924820236442E-01 -1.613328739823E-01
H51 -4.317789108558E-01  3.693864852090E-01  9.534636238352E-02
H52  4.317789108558E-01 -3.693864852090E-01 -9.534636238352E-02
H53 -3.538683409573E-01  4.725287329445E-01 -4.981021027987E-02
H54  3.538683409573E-01 -4.725287329445E-01  4.981021027987E-02
H55 -4.476339919647E-02  4.004882328455E-01 -1.297710795139E-01
H56  4.476339919647E-02 -4.004882328455E-01  1.297710795139E-01
H57  2.705709716313E-01  2.557959949321E-01 -1.367769769574E-01
H58 -2.705709716313E-01 -2.557959949321E-01  1.367769769574E-01
H59  2.927903845510E-01  3.987556357152E-01  3.776425249346E-01
H60 -2.927903845510E-01 -3.987556357152E-01 -3.776425249346E-01
H61  2.647824121898E-01  4.083378066112E-01  1.875575129611E-01
H62 -2.647824121898E-01 -4.083378066112E-01 -1.875575129611E-01
H63  8.993275240990E-02  3.439435374152E-01  2.662611492936E-01
H64 -8.993275240990E-02 -3.439435374152E-01 -2.662611492936E-01
H65  3.001454104656E-01  2.149641918166E-01  2.413590072634E-01
H66 -3.001454104656E-01 -2.149641918166E-01 -2.413590072634E-01
H67 -4.039405367314E-01  2.950536275039E-01  2.927228135139E-01
H68  4.039405367314E-01 -2.950536275039E-01 -2.927228135139E-01
H69 -3.818991659823E-01  4.979596846325E-01  3.454299766490E-01
H70  3.818991659823E-01 -4.979596846325E-01 -3.454299766490E-01
H71 -4.028859221558E-01  4.902164539194E-01  2.362701927984E-01
H72  4.028859221558E-01 -4.902164539194E-01 -2.362701927984E-01
H73 -4.970909085608E-01 -1.904442811952E-01  3.920856579542E-01
H74  4.970909085608E-01  1.904442811952E-01 -3.920856579542E-01
H75  4.112541286747E-01 -2.246603322922E-01 -4.563011370216E-01
H76 -4.112541286747E-01  2.246603322922E-01  4.563011370216E-01
H77  3.733809009038E-01 -4.231368556007E-01  4.899393524462E-01
H78 -3.733809009038E-01  4.231368556007E-01 -4.899393524462E-01
H79  1.828516195754E-01 -2.776735167200E-01 -4.732518258598E-01
H80 -1.828516195754E-01  2.776735167200E-01  4.732518258598E-01
H81  1.265372151546E-01  6.410490718751E-03  4.456764736534E-01
H82 -1.265372151546E-01 -6.410490718751E-03 -4.456764736534E-01
H83  3.052402150881E-01  7.060538838183E-02  3.684479424959E-01
H84 -3.052402150881E-01 -7.060538838183E-02 -3.684479424959E-01
H85  3.432052991100E-01  6.696111190640E-02  4.762701442226E-01
H86 -3.432052991100E-01 -6.696111190640E-02 -4.762701442226E-01
H87 -5.016336418864E-02 -3.902435912156E-01  2.854755332315E-01
H88  5.016336418864E-02  3.902435912156E-01 -2.854755332315E-01
H89 -4.548317247112E-02 -4.696411089243E-01  4.345406899351E-01
H90  4.548317247112E-02  4.696411089243E-01 -4.345406899351E-01
H91 -2.523894410306E-01 -3.434069458393E-01  4.248637821784E-01
H92  2.523894410306E-01  3.434069458393E-01 -4.248637821784E-01
H93 -6.597059716487E-02 -2.467781920713E-01  4.673430078496E-01
H94  6.597059716487E-02  2.467781920713E-01 -4.673430078496E-01
H95 -3.456451632616E-02 -8.032594493386E-02  2.437054337034E-01
H96  3.456451632616E-02  8.032594493386E-02 -2.437054337034E-01
H97 -7.807126149423E-02 -8.028264759285E-03  3.507873309288E-01
H98  7.807126149423E-02  8.028264759285E-03 -3.507873309288E-01
H99 -2.500286078645E-01 -1.215565113253E-01  3.031444933649E-01
H100  2.500286078645E-01  1.215565113253E-01 -3.031444933649E-01


#===END

data_OPT_STEP_79

_symmetry_space_group_name_H-M 'P 1'
_cell_length_a      7.16571487
_cell_length_b      7.66980650
_cell_length_c     15.92483342
_cell_angle_alpha   91.789473
_cell_angle_beta   83.327258
_cell_angle_gamma   87.760768

loop_
_atom_site_label
_atom_site_fract_x
_atom_site_fract_y
_atom_site_fract_z
SI1  2.515320255640E-01 -3.098625311558E-01  3.239532625699E-01
SI2 -2.515320255640E-01  3.098625311558E-01 -3.239532625699E-01
C3  4.527411314635E-01 -6.295173528867E-02  8.220286145762E-02
C4 -4.527411314635E-01  6.295173528867E-02 -8.220286145762E-02
C5  3.225486523101E-01  4.553492442213E-02  4.591855898138E-02
C6 -3.225486523101E-01 -4.553492442213E-02 -4.591855898138E-02
C7  1.457640754836E-01  9.274184512787E-02  8.935788429743E-02
C8 -1.457640754836E-01 -9.274184512787E-02 -8.935788429743E-02
C9  1.518577623815E-02  1.950290387134E-01  5.405530304979E-02
C10 -1.518577623815E-02 -1.950290387134E-01 -5.405530304979E-02
C11 -1.650377996477E-01  2.412379167353E-01  9.844447159757E-02
C12  1.650377996477E-01 -2.412379167353E-01 -9.844447159757E-02
C13 -2.924719062682E-01  3.387247340406E-01  6.153260642780E-02
C14  2.924719062682E-01 -3.387247340406E-01 -6.153260642780E-02
C15 -2.484220793816E-01  3.960654245559E-01 -2.214538244368E-02
C16  2.484220793816E-01 -3.960654245559E-01  2.214538244368E-02
C17 -7.854738589606E-02  3.554242169380E-01 -6.660574482663E-02
C18  7.854738589606E-02 -3.554242169380E-01  6.660574482663E-02
C19  5.993009167359E-02  2.537576049771E-01 -3.044539218035E-02
C20 -5.993009167359E-02 -2.537576049771E-01  3.044539218035E-02
C21  2.349114965019E-01  2.104874777159E-01 -7.360356812821E-02
C22 -2.349114965019E-01 -2.104874777159E-01  7.360356812821E-02
C23  3.691343448182E-01  1.080682570729E-01 -3.780163558320E-02
C24 -3.691343448182E-01 -1.080682570729E-01  3.780163558320E-02
C25  3.999772616031E-01 -1.341649869512E-01  1.615805303796E-01
C26 -3.999772616031E-01  1.341649869512E-01 -1.615805303796E-01
C27  3.477313142064E-01 -2.028334738966E-01  2.275187999915E-01
C28 -3.477313142064E-01  2.028334738966E-01 -2.275187999915E-01
C29  3.370924428441E-01  4.511277645276E-01  3.154985958059E-01
C30 -3.370924428441E-01 -4.511277645276E-01 -3.154985958059E-01
C31  2.441053844794E-01  3.478008182803E-01  2.495059972623E-01
C32 -2.441053844794E-01 -3.478008182803E-01 -2.495059972623E-01
C33 -4.490342944926E-01  4.347653832682E-01  2.966890283301E-01
C34  4.490342944926E-01 -4.347653832682E-01 -2.966890283301E-01
C35  3.512870936557E-01 -1.917743644713E-01  4.148575282449E-01
C36 -3.512870936557E-01  1.917743644713E-01 -4.148575282449E-01
C37  3.295265342816E-01 -2.846238108038E-01  4.983898059583E-01
C38 -3.295265342816E-01  2.846238108038E-01 -4.983898059583E-01
C39  2.765379309220E-01 -2.831848775975E-03  4.261514803590E-01
C40 -2.765379309220E-01  2.831848775975E-03 -4.261514803590E-01
C41 -1.606873256087E-02 -2.941918300025E-01  3.305624182843E-01
C42  1.606873256087E-02  2.941918300025E-01 -3.305624182843E-01
C43 -9.830270695802E-02 -3.379926479407E-01  4.198545733164E-01
C44  9.830270695802E-02  3.379926479407E-01 -4.198545733164E-01
C45 -9.872040446304E-02 -1.224391142031E-01  3.020017689742E-01
C46  9.872040446304E-02  1.224391142031E-01 -3.020017689742E-01
H47  1.118645419686E-01  4.667830355443E-02  1.526217783880E-01
H48 -1.118645419686E-01 -4.667830355443E-02 -1.526217783880E-01
H49 -1.992357006628E-01  1.935858300097E-01  1.615738611915E-01
H50  1.992357006628E-01 -1.935858300097E-01 -1.615738611915E-01
H51 -4.304279141155E-01  3.701707107660E-01  9.525253654728E-02
H52  4.304279141155E-01 -3.701707107660E-01 -9.525253654728E-02
H53 -3.533708984015E-01  4.724786242570E-01 -5.041051287841E-02
H54  3.533708984015E-01 -4.724786242570E-01  5.041051287841E-02
H55 -4.510621445237E-02  3.998479613371E-01 -1.303293369872E-01
H56  4.510621445237E-02 -3.998479613371E-01  1.303293369872E-01
H57  2.703697444274E-01  2.560507742772E-01 -1.370434539780E-01
H58 -2.703697444274E-01 -2.560507742772E-01  1.370434539780E-01
H59  2.962013119173E-01  3.973172732252E-01  3.779156647975E-01
H60 -2.962013119173E-01 -3.973172732252E-01 -3.779156647975E-01
H61  2.648993959763E-01  4.069945354371E-01  1.875262309582E-01
H62 -2.648993959763E-01 -4.069945354371E-01 -1.875262309582E-01
H63  9.240146585048E-02  3.391825236909E-01  2.666407464319E-01
H64 -9.240146585048E-02 -3.391825236909E-01 -2.666407464319E-01
H65  3.044937552861E-01  2.138289077535E-01  2.410412002538E-01
H66 -3.044937552861E-01 -2.138289077535E-01 -2.410412002538E-01
H67 -3.998367951473E-01  2.971904490824E-01  2.930697296985E-01
H68  3.998367951473E-01 -2.971904490824E-01 -2.930697296985E-01
H69 -3.788525084802E-01 -4.994720391434E-01  3.452955554404E-01
H70  3.788525084802E-01  4.994720391434E-01 -3.452955554404E-01
H71 -4.015578519899E-01  4.915664833683E-01  2.360380773072E-01
H72  4.015578519899E-01 -4.915664833683E-01 -2.360380773072E-01
H73 -4.978001147615E-01 -1.902308974649E-01  3.924604363166E-01
H74  4.978001147615E-01  1.902308974649E-01 -3.924604363166E-01
H75  4.140481784545E-01 -2.248059354193E-01 -4.562696897050E-01
H76 -4.140481784545E-01  2.248059354193E-01  4.562696897050E-01
H77  3.727006931828E-01 -4.230327301122E-01  4.906316246354E-01
H78 -3.727006931828E-01  4.230327301122E-01 -4.906316246354E-01
H79  1.838020606047E-01 -2.767392776278E-01 -4.720187095455E-01
H80 -1.838020606047E-01  2.767392776278E-01  4.720187095455E-01
H81  1.244807644400E-01  3.832166426302E-03  4.447905334047E-01
H82 -1.244807644400E-01 -3.832166426302E-03 -4.447905334047E-01
H83  3.035197763210E-01  6.815810857162E-02  3.678021607065E-01
H84 -3.035197763210E-01 -6.815810857162E-02 -3.678021607065E-01
H85  3.409687565514E-01  6.576739459903E-02  4.760348148196E-01
H86 -3.409687565514E-01 -6.576739459903E-02 -4.760348148196E-01
H87 -5.111350038517E-02 -3.982782281641E-01  2.865102802176E-01
H88  5.111350038517E-02  3.982782281641E-01 -2.865102802176E-01
H89 -4.489210691870E-02 -4.653533645915E-01  4.378556640698E-01
H90  4.489210691870E-02  4.653533645915E-01 -4.378556640698E-01
H91 -2.518364321893E-01 -3.411112731332E-01  4.259371677670E-01
H92  2.518364321893E-01  3.411112731332E-01 -4.259371677670E-01
H93 -6.390777625391E-02 -2.403123425678E-01  4.664504973160E-01
H94  6.390777625391E-02  2.403123425678E-01 -4.664504973160E-01
H95 -3.850609100489E-02 -9.554632102078E-02  2.372908105609E-01
H96  3.850609100489E-02  9.554632102078E-02 -2.372908105609E-01
H97 -7.289749412275E-02 -1.095598446657E-02  3.436436853614E-01
H98  7.289749412275E-02  1.095598446657E-02 -3.436436853614E-01
H99 -2.515181113573E-01 -1.288793171096E-01  3.014981901878E-01
H100  2.515181113573E-01  1.288793171096E-01 -3.014981901878E-01


#===END

data_OPT_STEP_80

_symmetry_space_group_name_H-M 'P 1'
_cell_length_a      7.17217198
_cell_length_b      7.65666392
_cell_length_c     15.95163719
_cell_angle_alpha   91.845744
_cell_angle_beta   83.146877
_cell_angle_gamma   87.628264

loop_
_atom_site_label
_atom_site_fract_x
_atom_site_fract_y
_atom_site_fract_z
SI1  2.511940469431E-01 -3.080222459208E-01  3.240574540022E-01
SI2 -2.511940469431E-01  3.080222459208E-01 -3.240574540021E-01
C3  4.525422626105E-01 -6.291085612350E-02  8.208889317103E-02
C4 -4.525422626105E-01  6.291085612350E-02 -8.208889317103E-02
C5  3.222027343671E-01  4.543122950620E-02  4.587936117269E-02
C6 -3.222027343671E-01 -4.543122950620E-02 -4.587936117269E-02
C7  1.449841546325E-01  9.229550871858E-02  8.921061628080E-02
C8 -1.449841546325E-01 -9.229550871858E-02 -8.921061628080E-02
C9  1.447915218100E-02  1.947500964088E-01  5.403446382380E-02
C10 -1.447915218100E-02 -1.947500964088E-01 -5.403446382380E-02
C11 -1.660675887924E-01  2.407770738035E-01  9.838817760183E-02
C12  1.660675887924E-01 -2.407770738035E-01 -9.838817760183E-02
C13 -2.934466212532E-01  3.384472020864E-01  6.162947112753E-02
C14  2.934466212532E-01 -3.384472020864E-01 -6.162947112753E-02
C15 -2.490003766208E-01  3.961227456421E-01 -2.187148094187E-02
C16  2.490003766208E-01 -3.961227456421E-01  2.187148094187E-02
C17 -7.882186968510E-02  3.555561474072E-01 -6.631805117557E-02
C18  7.882186968510E-02 -3.555561474072E-01  6.631805117557E-02
C19  5.960749402957E-02  2.537298384412E-01 -3.030054338668E-02
C20 -5.960749402957E-02 -2.537298384412E-01  3.030054338668E-02
C21  2.348061044696E-01  2.104126523570E-01 -7.344169757425E-02
C22 -2.348061044696E-01 -2.104126523570E-01  7.344169757425E-02
C23  3.690636299027E-01  1.080344732573E-01 -3.771879586083E-02
C24 -3.690636299027E-01 -1.080344732573E-01  3.771879586083E-02
C25  3.998496368791E-01 -1.336309080778E-01  1.615043211930E-01
C26 -3.998496368791E-01  1.336309080778E-01 -1.615043211930E-01
C27  3.475983493786E-01 -2.013782068090E-01  2.276128827797E-01
C28 -3.475983493786E-01  2.013782068090E-01 -2.276128827797E-01
C29  3.350867086651E-01  4.519611242218E-01  3.153701997384E-01
C30 -3.350867086651E-01 -4.519611242218E-01 -3.153701997384E-01
C31  2.418616025799E-01  3.493669624917E-01  2.494869295460E-01
C32 -2.418616025799E-01 -3.493669624917E-01 -2.494869295460E-01
C33 -4.511985631992E-01  4.335751163692E-01  2.965850945088E-01
C34  4.511985631992E-01 -4.335751163692E-01 -2.965850945088E-01
C35  3.517757962686E-01 -1.910535764853E-01  4.147425177512E-01
C36 -3.517757962686E-01  1.910535764853E-01 -4.147425177512E-01
C37  3.289997911193E-01 -2.846059892023E-01  4.979354014969E-01
C38 -3.289997911193E-01  2.846059892023E-01 -4.979354014969E-01
C39  2.779785028651E-01 -1.411589470765E-03  4.265009345084E-01
C40 -2.779785028651E-01  1.411589470765E-03 -4.265009345084E-01
C41 -1.625282264630E-02 -2.907172203044E-01  3.310103888471E-01
C42  1.625282264630E-02  2.907172203044E-01 -3.310103888471E-01
C43 -9.914839237058E-02 -3.397021999819E-01  4.191609437423E-01
C44  9.914839237058E-02  3.397021999819E-01 -4.191609437423E-01
C45 -9.883375845317E-02 -1.166241512862E-01  3.051306997270E-01
C46  9.883375845317E-02  1.166241512862E-01 -3.051306997270E-01
H47  1.104945423142E-01  4.540203080122E-02  1.521929321666E-01
H48 -1.104945423142E-01 -4.540203080122E-02 -1.521929321666E-01
H49 -2.005653143524E-01  1.927758297152E-01  1.613508602045E-01
H50  2.005653143524E-01 -1.927758297152E-01 -1.613508602045E-01
H51 -4.316353845309E-01  3.696658577534E-01  9.537312256427E-02
H52  4.316353845309E-01 -3.696658577534E-01 -9.537312256427E-02
H53 -3.538789892175E-01  4.727761257349E-01 -4.998526214853E-02
H54  3.538789892175E-01 -4.727761257349E-01  4.998526214853E-02
H55 -4.504140618611E-02  4.003762674821E-01 -1.298679027735E-01
H56  4.504140618611E-02 -4.003762674821E-01  1.298679027735E-01
H57  2.704641866689E-01  2.559444907817E-01 -1.368013267094E-01
H58 -2.704641866689E-01 -2.559444907817E-01  1.368013267094E-01
H59  2.934107474794E-01  3.984373961124E-01  3.776867222660E-01
H60 -2.934107474794E-01 -3.984373961124E-01 -3.776867222660E-01
H61  2.642495837091E-01  4.079402795979E-01  1.875402677213E-01
H62 -2.642495837091E-01 -4.079402795979E-01 -1.875402677213E-01
H63  8.998197754156E-02  3.427673832628E-01  2.664291425068E-01
H64 -8.998197754156E-02 -3.427673832628E-01 -2.664291425068E-01
H65  3.007212404359E-01  2.145586578507E-01  2.412924612191E-01
H66 -3.007212404359E-01 -2.145586578507E-01 -2.412924612191E-01
H67 -4.031563294804E-01  2.953355290410E-01  2.927631038430E-01
H68  4.031563294804E-01 -2.953355290410E-01 -2.927631038430E-01
H69 -3.809614466071E-01  4.984130201691E-01  3.452632245243E-01
H70  3.809614466071E-01 -4.984130201691E-01 -3.452632245243E-01
H71 -4.027308196862E-01  4.903179184378E-01  2.361163299471E-01
H72  4.027308196862E-01 -4.903179184378E-01 -2.361163299471E-01
H73 -4.972849596194E-01 -1.905355072641E-01  3.922218663743E-01
H74  4.972849596194E-01  1.905355072641E-01 -3.922218663743E-01
H75  4.124480481891E-01 -2.250875118398E-01 -4.564441409751E-01
H76 -4.124480481891E-01  2.250875118398E-01  4.564441409751E-01
H77  3.724924093480E-01 -4.232557952803E-01  4.899632788370E-01
H78 -3.724924093480E-01  4.232557952803E-01 -4.899632788370E-01
H79  1.829695552909E-01 -2.768331449009E-01 -4.728076087134E-01
H80 -1.829695552909E-01  2.768331449009E-01  4.728076087134E-01
H81  1.260801914865E-01  6.051850244201E-03  4.455835760561E-01
H82 -1.260801914865E-01 -6.051850244201E-03 -4.455835760561E-01
H83  3.048325433261E-01  6.989858936727E-02  3.683035244419E-01
H84 -3.048325433261E-01 -6.989858936727E-02 -3.683035244419E-01
H85  3.430576282295E-01  6.658577676226E-02  4.761800773643E-01
H86 -3.430576282295E-01 -6.658577676226E-02 -4.761800773643E-01
H87 -5.077187851950E-02 -3.919388325899E-01  2.855867784326E-01
H88  5.077187851950E-02  3.919388325899E-01 -2.855867784326E-01
H89 -4.544638546912E-02 -4.683869732040E-01  4.354027966909E-01
H90  4.544638546912E-02  4.683869732040E-01 -4.354027966909E-01
H91 -2.525647224736E-01 -3.427135726207E-01  4.249492632162E-01
H92  2.525647224736E-01  3.427135726207E-01 -4.249492632162E-01
H93 -6.570511996475E-02 -2.446758456650E-01  4.670207385468E-01
H94  6.570511996475E-02  2.446758456650E-01 -4.670207385468E-01
H95 -3.552007699137E-02 -8.390480044176E-02  2.421323172141E-01
H96  3.552007699137E-02  8.390480044176E-02 -2.421323172141E-01
H97 -7.695824635316E-02 -8.794442702903E-03  3.491718839187E-01
H98  7.695824635316E-02  8.794442702903E-03 -3.491718839187E-01
H99 -2.507031424692E-01 -1.230399899546E-01  3.027407061667E-01
H100  2.507031424692E-01  1.230399899546E-01 -3.027407061667E-01


#===END

data_OPT_STEP_81

_symmetry_space_group_name_H-M 'P 1'
_cell_length_a      7.16819609
_cell_length_b      7.65948522
_cell_length_c     15.94378755
_cell_angle_alpha   91.862807
_cell_angle_beta   83.235628
_cell_angle_gamma   87.661370

loop_
_atom_site_label
_atom_site_fract_x
_atom_site_fract_y
_atom_site_fract_z
SI1  2.507239130338E-01 -3.084660071504E-01  3.238312091709E-01
SI2 -2.507239130338E-01  3.084660071504E-01 -3.238312091709E-01
C3  4.526249536726E-01 -6.295468839309E-02  8.206385181838E-02
C4 -4.526249536726E-01  6.295468839309E-02 -8.206385181838E-02
C5  3.222371996103E-01  4.541270022938E-02  4.583617799179E-02
C6 -3.222371996103E-01 -4.541270022938E-02 -4.583617799179E-02
C7  1.451481747704E-01  9.235706406089E-02  8.916007625411E-02
C8 -1.451481747704E-01 -9.235706406089E-02 -8.916007625411E-02
C9  1.461388400452E-02  1.948848153479E-01  5.398462153053E-02
C10 -1.461388400452E-02 -1.948848153479E-01 -5.398462153053E-02
C11 -1.657833928272E-01  2.411834574141E-01  9.835199432082E-02
C12  1.657833928272E-01 -2.411834574141E-01 -9.835199432082E-02
C13 -2.932176213722E-01  3.388191820305E-01  6.154827380221E-02
C14  2.932176213722E-01 -3.388191820305E-01 -6.154827380221E-02
C15 -2.489493101069E-01  3.962870252203E-01 -2.199710176798E-02
C16  2.489493101069E-01 -3.962870252203E-01  2.199710176798E-02
C17 -7.889060814167E-02  3.555920174710E-01 -6.644531629355E-02
C18  7.889060814167E-02 -3.555920174710E-01  6.644531629355E-02
C19  5.959374551510E-02  2.537158051009E-01 -3.041050544943E-02
C20 -5.959374551510E-02 -2.537158051009E-01  3.041050544943E-02
C21  2.347162563835E-01  2.103460506891E-01 -7.355018613713E-02
C22 -2.347162563835E-01 -2.103460506891E-01  7.355018613713E-02
C23  3.689834348006E-01  1.080129307264E-01 -3.777234353598E-02
C24 -3.689834348006E-01 -1.080129307264E-01  3.777234353598E-02
C25  3.998398989524E-01 -1.338268467419E-01  1.614234643628E-01
C26 -3.998398989524E-01  1.338268467419E-01 -1.614234643628E-01
C27  3.474542482246E-01 -2.017659114676E-01  2.274419710703E-01
C28 -3.474542482246E-01  2.017659114676E-01 -2.274419710703E-01
C29  3.347572674426E-01  4.516992657020E-01  3.152623279864E-01
C30 -3.347572674426E-01 -4.516992657020E-01 -3.152623279864E-01
C31  2.415677171935E-01  3.490202362319E-01  2.492745597104E-01
C32 -2.415677171935E-01 -3.490202362319E-01 -2.492745597104E-01
C33 -4.514756897679E-01  4.335053523664E-01  2.965914883458E-01
C34  4.514756897679E-01 -4.335053523664E-01 -2.965914883458E-01
C35  3.510785939754E-01 -1.912625226763E-01  4.146184680181E-01
C36 -3.510785939754E-01  1.912625226763E-01 -4.146184680181E-01
C37  3.287294865079E-01 -2.845031153898E-01  4.979147331548E-01
C38 -3.287294865079E-01  2.845031153898E-01 -4.979147331548E-01
C39  2.771107942588E-01 -1.774448259523E-03  4.262210935533E-01
C40 -2.771107942588E-01  1.774448259523E-03 -4.262210935533E-01
C41 -1.679089626066E-02 -2.914965675120E-01  3.305906958044E-01
C42  1.679089626066E-02  2.914965675120E-01 -3.305906958044E-01
C43 -9.951701399907E-02 -3.390697264505E-01  4.189908164407E-01
C44  9.951701399907E-02  3.390697264505E-01 -4.189908164407E-01
C45 -9.957073528190E-02 -1.181693020718E-01  3.040221382681E-01
C46  9.957073528190E-02  1.181693020718E-01 -3.040221382681E-01
H47  1.108723457833E-01  4.571111008588E-02  1.521979773981E-01
H48 -1.108723457833E-01 -4.571111008588E-02 -1.521979773981E-01
H49 -2.001750644130E-01  1.933668631507E-01  1.613582177598E-01
H50  2.001750644130E-01 -1.933668631507E-01 -1.613582177598E-01
H51 -4.312265580545E-01  3.702364844819E-01  9.537436554505E-02
H52  4.312265580545E-01 -3.702364844819E-01 -9.537436554505E-02
H53 -3.537789975277E-01  4.729673199106E-01 -5.017471237396E-02
H54  3.537789975277E-01 -4.729673199106E-01  5.017471237396E-02
H55 -4.525919845899E-02  4.003530618551E-01 -1.300120166138E-01
H56  4.525919845899E-02 -4.003530618551E-01  1.300120166138E-01
H57  2.703681301810E-01  2.559197465719E-01 -1.369022218315E-01
H58 -2.703681301810E-01 -2.559197465719E-01  1.369022218315E-01
H59  2.930745022408E-01  3.982087495654E-01  3.775802313671E-01
H60 -2.930745022408E-01 -3.982087495654E-01 -3.775802313671E-01
H61  2.638343794575E-01  4.076497838328E-01  1.873336102730E-01
H62 -2.638343794575E-01 -4.076497838328E-01 -1.873336102730E-01
H63  8.968400916022E-02  3.421896263975E-01  2.661548143655E-01
H64 -8.968400916022E-02 -3.421896263975E-01 -2.661548143655E-01
H65  3.006111218864E-01  2.143828133574E-01  2.410460375445E-01
H66 -3.006111218864E-01 -2.143828133574E-01 -2.410460375445E-01
H67 -4.033672446461E-01  2.953659627477E-01  2.928487885416E-01
H68  4.033672446461E-01 -2.953659627477E-01 -2.928487885416E-01
H69 -3.811819033351E-01  4.985129778139E-01  3.452986839042E-01
H70  3.811819033351E-01 -4.985129778139E-01 -3.452986839042E-01
H71 -4.030881615624E-01  4.901586060194E-01  2.360973018020E-01
H72  4.030881615624E-01 -4.901586060194E-01 -2.360973018020E-01
H73 -4.979696884084E-01 -1.904834392999E-01  3.921605117803E-01
H74  4.979696884084E-01  1.904834392999E-01 -3.921605117803E-01
H75  4.127355047067E-01 -2.248544390306E-01 -4.566060888597E-01
H76 -4.127355047067E-01  2.248544390306E-01  4.566060888597E-01
H77  3.720940117777E-01 -4.230920716563E-01  4.899941716735E-01
H78 -3.720940117777E-01  4.230920716563E-01 -4.899941716735E-01
H79  1.828001533213E-01 -2.764648516341E-01 -4.726897314021E-01
H80 -1.828001533213E-01  2.764648516341E-01  4.726897314021E-01
H81  1.251375939424E-01  5.639595252699E-03  4.452487440151E-01
H82 -1.251375939424E-01 -5.639595252699E-03 -4.452487440151E-01
H83  3.038703095693E-01  6.938315178695E-02  3.679736077392E-01
H84 -3.038703095693E-01 -6.938315178695E-02 -3.679736077392E-01
H85  3.422285144062E-01  6.647374395669E-02  4.759071443240E-01
H86 -3.422285144062E-01 -6.647374395669E-02 -4.759071443240E-01
H87 -5.148699825522E-02 -3.935709273456E-01  2.855586793678E-01
H88  5.148699825522E-02  3.935709273456E-01 -2.855586793678E-01
H89 -4.580512550464E-02 -4.674266812043E-01  4.357240216279E-01
H90  4.580512550464E-02  4.674266812043E-01 -4.357240216279E-01
H91 -2.530330778773E-01 -3.421204018031E-01  4.247659584547E-01
H92  2.530330778773E-01  3.421204018031E-01 -4.247659584547E-01
H93 -6.581065966998E-02 -2.432042466942E-01  4.665217531578E-01
H94  6.581065966998E-02  2.432042466942E-01 -4.665217531578E-01
H95 -3.723990472705E-02 -8.711874539336E-02  2.406279498971E-01
H96  3.723990472705E-02  8.711874539336E-02 -2.406279498971E-01
H97 -7.660060181001E-02 -9.341644997574E-03  3.473777912681E-01
H98  7.660060181001E-02  9.341644997574E-03 -3.473777912681E-01
H99 -2.517520103826E-01 -1.246091195600E-01  3.021799360798E-01
H100  2.517520103826E-01  1.246091195600E-01 -3.021799360798E-01


#===END

data_OPT_STEP_82

_symmetry_space_group_name_H-M 'P 1'
_cell_length_a      7.15402121
_cell_length_b      7.65383770
_cell_length_c     15.96791691
_cell_angle_alpha   91.881695
_cell_angle_beta   83.335697
_cell_angle_gamma   87.755078

loop_
_atom_site_label
_atom_site_fract_x
_atom_site_fract_y
_atom_site_fract_z
SI1  2.502448863998E-01 -3.083100182905E-01  3.231824237929E-01
SI2 -2.502448863998E-01  3.083100182905E-01 -3.231824237929E-01
C3  4.527559730762E-01 -6.312426826650E-02  8.180015008688E-02
C4 -4.527559730762E-01  6.312426826650E-02 -8.180015008688E-02
C5  3.219752396603E-01  4.510908728530E-02  4.573550758574E-02
C6 -3.219752396603E-01 -4.510908728530E-02 -4.573550758574E-02
C7  1.447029992110E-01  9.188252679687E-02  8.896078370031E-02
C8 -1.447029992110E-01 -9.188252679687E-02 -8.896078370031E-02
C9  1.399413965221E-02  1.946964194482E-01  5.392615971886E-02
C10 -1.399413965221E-02 -1.946964194482E-01 -5.392615971886E-02
C11 -1.663870892732E-01  2.413017254459E-01  9.820961896057E-02
C12  1.663870892732E-01 -2.413017254459E-01 -9.820961896057E-02
C13 -2.938477830065E-01  3.392751812820E-01  6.146538683945E-02
C14  2.938477830065E-01 -3.392751812820E-01 -6.146538683945E-02
C15 -2.496174933325E-01  3.967968863990E-01 -2.191839738885E-02
C16  2.496174933325E-01 -3.967968863990E-01  2.191839738885E-02
C17 -7.958795398859E-02  3.557602160409E-01 -6.625339140217E-02
C18  7.958795398859E-02 -3.557602160409E-01  6.625339140217E-02
C19  5.895807873291E-02  2.536802198587E-01 -3.029911447766E-02
C20 -5.895807873291E-02 -2.536802198587E-01  3.029911447766E-02
C21  2.342208111678E-01  2.104622629489E-01 -7.338036189623E-02
C22 -2.342208111678E-01 -2.104622629489E-01  7.338036189623E-02
C23  3.686726330333E-01  1.079773680477E-01 -3.770752137994E-02
C24 -3.686726330333E-01 -1.079773680477E-01  3.770752137994E-02
C25  4.001414641749E-01 -1.339711762099E-01  1.610840759703E-01
C26 -4.001414641749E-01  1.339711762099E-01 -1.610840759703E-01
C27  3.479273895327E-01 -2.018526855438E-01  2.270357449232E-01
C28 -3.479273895327E-01  2.018526855438E-01 -2.270357449232E-01
C29  3.329229132402E-01  4.514225714518E-01  3.148898566326E-01
C30 -3.329229132402E-01 -4.514225714518E-01 -3.148898566326E-01
C31  2.392230425260E-01  3.491382230818E-01  2.488652635392E-01
C32 -2.392230425260E-01 -3.491382230818E-01 -2.488652635392E-01
C33 -4.530727864851E-01  4.320629867707E-01  2.964847568938E-01
C34  4.530727864851E-01 -4.320629867707E-01 -2.964847568938E-01
C35  3.503339737603E-01 -1.911831504709E-01  4.140654957935E-01
C36 -3.503339737603E-01  1.911831504709E-01 -4.140654957935E-01
C37  3.276646300956E-01 -2.844201566082E-01  4.972950012861E-01
C38 -3.276646300956E-01  2.844201566082E-01 -4.972950012861E-01
C39  2.766898445564E-01 -1.525964714848E-03  4.254742693771E-01
C40 -2.766898445564E-01  1.525964714848E-03 -4.254742693771E-01
C41 -1.756532840397E-02 -2.909445107314E-01  3.295950958602E-01
C42  1.756532840397E-02  2.909445107314E-01 -3.295950958602E-01
C43 -1.008637068819E-01 -3.383681750805E-01  4.177987830119E-01
C44  1.008637068819E-01  3.383681750805E-01 -4.177987830119E-01
C45 -1.005341835927E-01 -1.180433963046E-01  3.029737277666E-01
C46  1.005341835927E-01  1.180433963046E-01 -3.029737277666E-01
H47  1.104854656399E-01  4.516915256117E-02  1.518975069683E-01
H48 -1.104854656399E-01 -4.516915256117E-02 -1.518975069683E-01
H49 -2.008754488902E-01  1.933871637987E-01  1.610765376254E-01
H50  2.008754488902E-01 -1.933871637987E-01 -1.610765376254E-01
H51 -4.315394497129E-01  3.710103593491E-01  9.548016883002E-02
H52  4.315394497129E-01 -3.710103593491E-01 -9.548016883002E-02
H53 -3.540281315524E-01  4.739517880975E-01 -5.019301326048E-02
H54  3.540281315524E-01 -4.739517880975E-01  5.019301326048E-02
H55 -4.584726173117E-02  4.007533189278E-01 -1.296684098437E-01
H56  4.584726173117E-02 -4.007533189278E-01  1.296684098437E-01
H57  2.700198651659E-01  2.567324513767E-01 -1.364708665805E-01
H58 -2.700198651659E-01 -2.567324513767E-01  1.364708665805E-01
H59  2.905282869064E-01  3.980764820575E-01  3.770667947698E-01
H60 -2.905282869064E-01 -3.980764820575E-01 -3.770667947698E-01
H61  2.623466970438E-01  4.076782356904E-01  1.870231440445E-01
H62 -2.623466970438E-01 -4.076782356904E-01 -1.870231440445E-01
H63  8.703634327304E-02  3.429998417931E-01  2.654799420476E-01
H64 -8.703634327304E-02 -3.429998417931E-01 -2.654799420476E-01
H65  2.976315145109E-01  2.143144023444E-01  2.408012222042E-01
H66 -2.976315145109E-01 -2.143144023444E-01 -2.408012222042E-01
H67 -4.060349951835E-01  2.935846448830E-01  2.928028010406E-01
H68  4.060349951835E-01 -2.935846448830E-01 -2.928028010406E-01
H69 -3.821610804393E-01  4.965854135970E-01  3.452116243499E-01
H70  3.821610804393E-01 -4.965854135970E-01 -3.452116243499E-01
H71 -4.040211895619E-01  4.886533680666E-01  2.361240688533E-01
H72  4.040211895619E-01 -4.886533680666E-01 -2.361240688533E-01
H73 -4.983547100895E-01 -1.901591875754E-01  3.919106225288E-01
H74  4.983547100895E-01  1.901591875754E-01 -3.919106225288E-01
H75  4.121226931652E-01 -2.246348039646E-01 -4.573016635507E-01
H76 -4.121226931652E-01  2.246348039646E-01  4.573016635507E-01
H77  3.709602686595E-01 -4.229572251847E-01  4.893340537400E-01
H78 -3.709602686595E-01  4.229572251847E-01 -4.893340537400E-01
H79  1.815237776749E-01 -2.760015797117E-01 -4.733898094786E-01
H80 -1.815237776749E-01  2.760015797117E-01  4.733898094786E-01
H81  1.244684172320E-01  6.437074477814E-03  4.445685580418E-01
H82 -1.244684172320E-01 -6.437074477814E-03 -4.445685580418E-01
H83  3.034934895298E-01  6.944830123291E-02  3.672344179997E-01
H84 -3.034934895298E-01 -6.944830123291E-02 -3.672344179997E-01
H85  3.424469571359E-01  6.710914113370E-02  4.749922123334E-01
H86 -3.424469571359E-01 -6.710914113370E-02 -4.749922123334E-01
H87 -5.249223683236E-02 -3.931176162441E-01  2.847657440630E-01
H88  5.249223683236E-02  3.931176162441E-01 -2.847657440630E-01
H89 -4.706356172519E-02 -4.667013731033E-01  4.349058392796E-01
H90  4.706356172519E-02  4.667013731033E-01 -4.349058392796E-01
H91 -2.546314743405E-01 -3.417729915073E-01  4.229505496219E-01
H92  2.546314743405E-01  3.417729915073E-01 -4.229505496219E-01
H93 -6.761975580799E-02 -2.417515622441E-01  4.652604529642E-01
H94  6.761975580799E-02  2.417515622441E-01 -4.652604529642E-01
H95 -3.762208672406E-02 -8.696208047162E-02  2.400609242841E-01
H96  3.762208672406E-02  8.696208047162E-02 -2.400609242841E-01
H97 -7.831317734664E-02 -9.573714920331E-03  3.462741655261E-01
H98  7.831317734664E-02  9.573714920331E-03 -3.462741655261E-01
H99 -2.526420363953E-01 -1.244823045685E-01  3.007621817909E-01
H100  2.526420363953E-01  1.244823045685E-01 -3.007621817909E-01


#===END

data_OPT_STEP_83

_symmetry_space_group_name_H-M 'P 1'
_cell_length_a      7.16455101
_cell_length_b      7.65835995
_cell_length_c     15.94919036
_cell_angle_alpha   91.865889
_cell_angle_beta   83.265629
_cell_angle_gamma   87.687042

loop_
_atom_site_label
_atom_site_fract_x
_atom_site_fract_y
_atom_site_fract_z
SI1  2.506332244104E-01 -3.084633816556E-01  3.236686409098E-01
SI2 -2.506332244104E-01  3.084633816556E-01 -3.236686409098E-01
C3  4.526685149840E-01 -6.300312360037E-02  8.199923002569E-02
C4 -4.526685149840E-01  6.300312360037E-02 -8.199923002569E-02
C5  3.221803538896E-01  4.533448422066E-02  4.581339316952E-02
C6 -3.221803538896E-01 -4.533448422066E-02 -4.581339316952E-02
C7  1.450550777623E-01  9.223765334119E-02  8.911507307597E-02
C8 -1.450550777623E-01 -9.223765334119E-02 -8.911507307597E-02
C9  1.447257667803E-02  1.948351668043E-01  5.397267139358E-02
C10 -1.447257667803E-02 -1.948351668043E-01 -5.397267139358E-02
C11 -1.659123380282E-01  2.412104466747E-01  9.831899982631E-02
C12  1.659123380282E-01 -2.412104466747E-01 -9.831899982630E-02
C13 -2.933545328428E-01  3.389331166966E-01  6.152783025160E-02
C14  2.933545328428E-01 -3.389331166966E-01 -6.152783025160E-02
C15 -2.491060925920E-01  3.964154260930E-01 -2.197967479507E-02
C16  2.491060925920E-01 -3.964154260930E-01  2.197967479507E-02
C17 -7.906284412624E-02  3.556340830738E-01 -6.639943915576E-02
C18  7.906284412624E-02 -3.556340830738E-01  6.639943915576E-02
C19  5.943761521197E-02  2.537079715201E-01 -3.038197162875E-02
C20 -5.943761521197E-02 -2.537079715201E-01  3.038197162875E-02
C21  2.345892443652E-01  2.103845476042E-01 -7.350672855109E-02
C22 -2.345892443652E-01 -2.103845476042E-01  7.350672855109E-02
C23  3.689040592990E-01  1.080070921812E-01 -3.775560133352E-02
C24 -3.689040592990E-01 -1.080070921812E-01  3.775560133352E-02
C25  3.999351189903E-01 -1.338792480377E-01  1.613403945953E-01
C26 -3.999351189903E-01  1.338792480377E-01 -1.613403945953E-01
C27  3.475951913430E-01 -2.018192929490E-01  2.273401748910E-01
C28 -3.475951913430E-01  2.018192929490E-01 -2.273401748910E-01
C29  3.343603069743E-01  4.516144812705E-01  3.151740753033E-01
C30 -3.343603069743E-01 -4.516144812705E-01 -3.151740753033E-01
C31  2.410531981203E-01  3.490274672976E-01  2.491710544332E-01
C32 -2.410531981203E-01 -3.490274672976E-01 -2.491710544332E-01
C33 -4.518119949690E-01  4.331656696023E-01  2.965720971570E-01
C34  4.518119949690E-01 -4.331656696023E-01 -2.965720971570E-01
C35  3.508956206720E-01 -1.912498296388E-01  4.144857486231E-01
C36 -3.508956206720E-01  1.912498296388E-01 -4.144857486231E-01
C37  3.284770489189E-01 -2.844703756810E-01  4.977745381536E-01
C38 -3.284770489189E-01  2.844703756810E-01 -4.977745381536E-01
C39  2.769856716468E-01 -1.733104484928E-03  4.260234856512E-01
C40 -2.769856716468E-01  1.733104484928E-03 -4.260234856512E-01
C41 -1.695581222519E-02 -2.914303666921E-01  3.303296234544E-01
C42  1.695581222519E-02  2.914303666921E-01 -3.303296234544E-01
C43 -9.982030849049E-02 -3.388613914536E-01  4.186996563784E-01
C44  9.982030849049E-02  3.388613914536E-01 -4.186996563784E-01
C45 -9.979067051970E-02 -1.182647498557E-01  3.036895493338E-01
C46  9.979067051970E-02  1.182647498557E-01 -3.036895493338E-01
H47  1.108078893990E-01  4.558246631829E-02  1.521316460826E-01
H48 -1.108078893990E-01 -4.558246631829E-02 -1.521316460826E-01
H49 -2.003205305938E-01  1.933695101496E-01  1.612921800152E-01
H50  2.003205305938E-01 -1.933695101496E-01 -1.612921800152E-01
H51 -4.312764289031E-01  3.704349358377E-01  9.540104700162E-02
H52  4.312764289031E-01 -3.704349358377E-01 -9.540104700162E-02
H53 -3.538287393542E-01  4.732154634049E-01 -5.018543442999E-02
H54  3.538287393542E-01 -4.732154634049E-01  5.018543442999E-02
H55 -4.541060928470E-02  4.004536681196E-01 -1.299300582775E-01
H56  4.541060928470E-02 -4.004536681196E-01  1.299300582775E-01
H57  2.702714188633E-01  2.561436006493E-01 -1.367931496068E-01
H58 -2.702714188633E-01 -2.561436006493E-01  1.367931496068E-01
H59  2.925125976199E-01  3.981504364324E-01  3.774573844666E-01
H60 -2.925125976199E-01 -3.981504364324E-01 -3.774573844666E-01
H61  2.635078234398E-01  4.076512229849E-01  1.872555658770E-01
H62 -2.635078234398E-01 -4.076512229849E-01 -1.872555658770E-01
H63  8.909765004796E-02  3.423306194435E-01  2.659845390962E-01
H64 -8.909765004796E-02 -3.423306194435E-01 -2.659845390962E-01
H65  2.999685915071E-01  2.143620794028E-01  2.409778487534E-01
H66 -2.999685915071E-01 -2.143620794028E-01 -2.409778487534E-01
H67 -4.039508491381E-01  2.949543437838E-01  2.928485881885E-01
H68  4.039508491381E-01 -2.949543437838E-01 -2.928485881885E-01
H69 -3.813656675927E-01  4.980659689028E-01  3.452847504938E-01
H70  3.813656675927E-01 -4.980659689028E-01 -3.452847504938E-01
H71 -4.032755086339E-01  4.898059232454E-01  2.361082818790E-01
H72  4.032755086339E-01 -4.898059232454E-01 -2.361082818790E-01
H73 -4.980612106882E-01 -1.903864930671E-01  3.921108232887E-01
H74  4.980612106882E-01  1.903864930671E-01 -3.921108232887E-01
H75  4.125991293829E-01 -2.247705008821E-01 -4.567664482311E-01
H76 -4.125991293829E-01  2.247705008821E-01  4.567664482311E-01
H77  3.718336598075E-01 -4.230380240748E-01  4.898524227112E-01
H78 -3.718336598075E-01  4.230380240748E-01 -4.898524227112E-01
H79  1.824973651476E-01 -2.763468368754E-01 -4.728510420422E-01
H80 -1.824973651476E-01  2.763468368754E-01  4.728510420422E-01
H81  1.249452453887E-01  5.803176031044E-03  4.450512611191E-01
H82 -1.249452453887E-01 -5.803176031044E-03 -4.450512611191E-01
H83  3.037715397210E-01  6.936663968777E-02  3.677731946954E-01
H84 -3.037715397210E-01 -6.936663968777E-02 -3.677731946954E-01
H85  3.422394692581E-01  6.662954191607E-02  4.756743705046E-01
H86 -3.422394692581E-01 -6.662954191607E-02 -4.756743705046E-01
H87 -5.171215255445E-02 -3.935866200184E-01  2.853764826445E-01
H88  5.171215255445E-02  3.935866200184E-01 -2.853764826445E-01
H89 -4.609645010136E-02 -4.671854266346E-01  4.355633301584E-01
H90  4.609645010136E-02  4.671854266346E-01 -4.355633301584E-01
H91 -2.533996857225E-01 -3.420001745894E-01  4.243159656880E-01
H92  2.533996857225E-01  3.420001745894E-01 -4.243159656880E-01
H93 -6.621949264611E-02 -2.427570805389E-01  4.661902089460E-01
H94  6.621949264611E-02  2.427570805389E-01 -4.661902089460E-01
H95 -3.737448944538E-02 -8.732090229478E-02  2.403888090292E-01
H96  3.737448944538E-02  8.732090229478E-02 -2.403888090292E-01
H97 -7.694572726045E-02 -9.457510806601E-03  3.469809260617E-01
H98  7.694572726045E-02  9.457510806601E-03 -3.469809260617E-01
H99 -2.519645449277E-01 -1.247081300840E-01  3.017858207765E-01
H100  2.519645449277E-01  1.247081300840E-01 -3.017858207765E-01


#===END

data_OPT_STEP_84

_symmetry_space_group_name_H-M 'P 1'
_cell_length_a      7.16348315
_cell_length_b      7.65896038
_cell_length_c     15.94746074
_cell_angle_alpha   91.865175
_cell_angle_beta   83.290738
_cell_angle_gamma   87.697671

loop_
_atom_site_label
_atom_site_fract_x
_atom_site_fract_y
_atom_site_fract_z
SI1  2.506859679600E-01 -3.085497411259E-01  3.236290430264E-01
SI2 -2.506859679600E-01  3.085497411259E-01 -3.236290430264E-01
C3  4.527144637621E-01 -6.303276709883E-02  8.197446093208E-02
C4 -4.527144637621E-01  6.303276709883E-02 -8.197446093208E-02
C5  3.221779771042E-01  4.527064630828E-02  4.582604716649E-02
C6 -3.221779771042E-01 -4.527064630828E-02 -4.582604716649E-02
C7  1.450391435225E-01  9.213339350861E-02  8.912631805940E-02
C8 -1.450391435225E-01 -9.213339350861E-02 -8.912631805940E-02
C9  1.442081632162E-02  1.947342810360E-01  5.397355126540E-02
C10 -1.442081632162E-02 -1.947342810360E-01 -5.397355126540E-02
C11 -1.659567056717E-01  2.411030480134E-01  9.829532852217E-02
C12  1.659567056717E-01 -2.411030480134E-01 -9.829532852217E-02
C13 -2.933619351810E-01  3.389513451371E-01  6.150664154396E-02
C14  2.933619351810E-01 -3.389513451371E-01 -6.150664154396E-02
C15 -2.490979402312E-01  3.965282319799E-01 -2.198136865761E-02
C16  2.490979402312E-01 -3.965282319799E-01  2.198136865761E-02
C17 -7.906445950909E-02  3.556929948058E-01 -6.637648320964E-02
C18  7.906445950909E-02 -3.556929948058E-01  6.637648320964E-02
C19  5.939123180355E-02  2.537161067742E-01 -3.034830164878E-02
C20 -5.939123180355E-02 -2.537161067742E-01  3.034830164878E-02
C21  2.345765386114E-01  2.104970545267E-01 -7.344785570680E-02
C22 -2.345765386114E-01 -2.104970545267E-01  7.344785570680E-02
C23  3.688966342709E-01  1.080028699331E-01 -3.772714125895E-02
C24 -3.688966342709E-01 -1.080028699331E-01  3.772714125895E-02
C25  4.001066840982E-01 -1.339488949810E-01  1.613268978180E-01
C26 -4.001066840982E-01  1.339488949810E-01 -1.613268978180E-01
C27  3.477529330635E-01 -2.019127853303E-01  2.273322308353E-01
C28 -3.477529330635E-01  2.019127853303E-01 -2.273322308353E-01
C29  3.343819034757E-01  4.515466891649E-01  3.151804064254E-01
C30 -3.343819034757E-01 -4.515466891649E-01 -3.151804064254E-01
C31  2.411108445559E-01  3.489205644286E-01  2.491498599242E-01
C32 -2.411108445559E-01 -3.489205644286E-01 -2.491498599242E-01
C33 -4.517633911674E-01  4.330376603318E-01  2.966328706775E-01
C34  4.517633911674E-01 -4.330376603318E-01 -2.966328706775E-01
C35  3.508024660630E-01 -1.912092733390E-01  4.144772789376E-01
C36 -3.508024660630E-01  1.912092733390E-01 -4.144772789376E-01
C37  3.283019640488E-01 -2.842939664548E-01  4.978204579448E-01
C38 -3.283019640488E-01  2.842939664548E-01 -4.978204579448E-01
C39  2.769460816553E-01 -1.655818983039E-03  4.258679125840E-01
C40 -2.769460816553E-01  1.655818983039E-03 -4.258679125840E-01
C41 -1.691282476303E-02 -2.915999551578E-01  3.302036268597E-01
C42  1.691282476303E-02  2.915999551578E-01 -3.302036268597E-01
C43 -9.993367176967E-02 -3.385020583699E-01  4.185826715356E-01
C44  9.993367176967E-02  3.385020583699E-01 -4.185826715356E-01
C45 -9.985335187017E-02 -1.188313618081E-01  3.031957780234E-01
C46  9.985335187017E-02  1.188313618081E-01 -3.031957780234E-01
H47  1.108205789989E-01  4.544703333056E-02  1.521399528376E-01
H48 -1.108205789989E-01 -4.544703333056E-02 -1.521399528376E-01
H49 -2.003907704205E-01  1.931931898461E-01  1.612475905658E-01
H50  2.003907704205E-01 -1.931931898461E-01 -1.612475905658E-01
H51 -4.312354557442E-01  3.705095466944E-01  9.537740957688E-02
H52  4.312354557442E-01 -3.705095466944E-01 -9.537740957688E-02
H53 -3.536977008024E-01  4.734394770619E-01 -5.022735554169E-02
H54  3.536977008024E-01 -4.734394770619E-01  5.022735554169E-02
H55 -4.533803199078E-02  4.005934025369E-01 -1.298907082306E-01
H56  4.533803199078E-02 -4.005934025369E-01  1.298907082306E-01
H57  2.702726146583E-01  2.564417133136E-01 -1.366980262121E-01
H58 -2.702726146583E-01 -2.564417133136E-01  1.366980262121E-01
H59  2.924736446031E-01  3.981057951133E-01  3.774607002547E-01
H60 -2.924736446031E-01 -3.981057951133E-01 -3.774607002547E-01
H61  2.636015454771E-01  4.074986551618E-01  1.872278769131E-01
H62 -2.636015454771E-01 -4.074986551618E-01 -1.872278769131E-01
H63  8.913311477454E-02  3.421514454796E-01  2.659049518837E-01
H64 -8.913311477454E-02 -3.421514454796E-01 -2.659049518837E-01
H65  3.000871203435E-01  2.143076458733E-01  2.410062271759E-01
H66 -3.000871203435E-01 -2.143076458733E-01 -2.410062271759E-01
H67 -4.039595068453E-01  2.948381203875E-01  2.928820996873E-01
H68  4.039595068453E-01 -2.948381203875E-01 -2.928820996873E-01
H69 -3.813117042454E-01  4.978093219524E-01  3.453892067923E-01
H70  3.813117042454E-01 -4.978093219524E-01 -3.453892067923E-01
H71 -4.031380681845E-01  4.897370133236E-01  2.361996139586E-01
H72  4.031380681845E-01 -4.897370133236E-01 -2.361996139586E-01
H73 -4.981130128120E-01 -1.903517783714E-01  3.921627991996E-01
H74  4.981130128120E-01  1.903517783714E-01 -3.921627991996E-01
H75  4.123999929394E-01 -2.245093127502E-01 -4.567253969933E-01
H76 -4.123999929394E-01  2.245093127502E-01  4.567253969933E-01
H77  3.717049583327E-01 -4.228500548601E-01  4.899631238738E-01
H78 -3.717049583327E-01  4.228500548601E-01 -4.899631238738E-01
H79  1.822981073319E-01 -2.761493316819E-01 -4.728385119227E-01
H80 -1.822981073319E-01  2.761493316819E-01  4.728385119227E-01
H81  1.248622461042E-01  5.998047184009E-03  4.448156851489E-01
H82 -1.248622461042E-01 -5.998047184009E-03 -4.448156851489E-01
H83  3.039383363082E-01  6.923080766845E-02  3.675616477492E-01
H84 -3.039383363082E-01 -6.923080766845E-02 -3.675616477492E-01
H85  3.421750648384E-01  6.684694872711E-02  4.755173752706E-01
H86 -3.421750648384E-01 -6.684694872711E-02 -4.755173752706E-01
H87 -5.160274467332E-02 -3.940722709268E-01  2.854279084755E-01
H88  5.160274467332E-02  3.940722709268E-01 -2.854279084755E-01
H89 -4.649769980074E-02 -4.667343596687E-01  4.355536718270E-01
H90  4.649769980074E-02  4.667343596687E-01 -4.355536718270E-01
H91 -2.535163007989E-01 -3.414236222910E-01  4.240907725217E-01
H92  2.535163007989E-01  3.414236222910E-01 -4.240907725217E-01
H93 -6.628933956296E-02 -2.423862594818E-01  4.660008650414E-01
H94  6.628933956296E-02  2.423862594818E-01 -4.660008650414E-01
H95 -3.812903148113E-02 -8.887345303789E-02  2.396588995156E-01
H96  3.812903148113E-02  8.887345303789E-02 -2.396588995156E-01
H97 -7.627432938974E-02 -9.393622286955E-03  3.460121090436E-01
H98  7.627432938974E-02  9.393622286955E-03 -3.460121090436E-01
H99 -2.521829016627E-01 -1.252209834548E-01  3.016704337769E-01
H100  2.521829016627E-01  1.252209834548E-01 -3.016704337769E-01


#===END

data_OPT_STEP_85

_symmetry_space_group_name_H-M 'P 1'
_cell_length_a      7.16213857
_cell_length_b      7.65969165
_cell_length_c     15.94862185
_cell_angle_alpha   91.844067
_cell_angle_beta   83.321936
_cell_angle_gamma   87.733102

loop_
_atom_site_label
_atom_site_fract_x
_atom_site_fract_y
_atom_site_fract_z
SI1  2.507632014798E-01 -3.089052224612E-01  3.235238870771E-01
SI2 -2.507632014798E-01  3.089052224612E-01 -3.235238870771E-01
C3  4.527633199127E-01 -6.315688699922E-02  8.194098480924E-02
C4 -4.527633199127E-01  6.315688699922E-02 -8.194098480924E-02
C5  3.222255350128E-01  4.525699931510E-02  4.585839277365E-02
C6 -3.222255350128E-01 -4.525699931510E-02 -4.585839277365E-02
C7  1.451107782581E-01  9.208030585540E-02  8.915741829185E-02
C8 -1.451107782581E-01 -9.208030585540E-02 -8.915741829185E-02
C9  1.447602078321E-02  1.946360588059E-01  5.397772102253E-02
C10 -1.447602078321E-02 -1.946360588059E-01 -5.397772102253E-02
C11 -1.658984517080E-01  2.409197188684E-01  9.825962652095E-02
C12  1.658984517080E-01 -2.409197188684E-01 -9.825962652095E-02
C13 -2.932623839189E-01  3.388556218320E-01  6.147037023086E-02
C14  2.932623839189E-01 -3.388556218320E-01 -6.147037023086E-02
C15 -2.489952224155E-01  3.965481709097E-01 -2.199414986528E-02
C16  2.489952224155E-01 -3.965481709097E-01  2.199414986528E-02
C17 -7.895483752211E-02  3.557522833013E-01 -6.634854916573E-02
C18  7.895483752211E-02 -3.557522833013E-01  6.634854916573E-02
C19  5.945669826380E-02  2.537701152428E-01 -3.029933419330E-02
C20 -5.945669826380E-02 -2.537701152428E-01  3.029933419330E-02
C21  2.346634118042E-01  2.107483914091E-01 -7.334543486108E-02
C22 -2.346634118042E-01 -2.107483914091E-01  7.334543486108E-02
C23  3.689475801297E-01  1.081210838443E-01 -3.766423599279E-02
C24 -3.689475801297E-01 -1.081210838443E-01  3.766423599279E-02
C25  4.003096010884E-01 -1.342043537061E-01  1.612875176589E-01
C26 -4.003096010884E-01  1.342043537061E-01 -1.612875176589E-01
C27  3.478382449912E-01 -2.022552144940E-01  2.272552597300E-01
C28 -3.478382449912E-01  2.022552144940E-01 -2.272552597300E-01
C29  3.345613134962E-01  4.512923932714E-01  3.151647764712E-01
C30 -3.345613134962E-01 -4.512923932714E-01 -3.151647764712E-01
C31  2.415111206026E-01  3.485430684274E-01  2.490734085078E-01
C32 -2.415111206026E-01 -3.485430684274E-01 -2.490734085078E-01
C33 -4.515420745444E-01  4.329466230244E-01  2.967568871813E-01
C34  4.515420745444E-01 -4.329466230244E-01 -2.967568871813E-01
C35  3.507131639928E-01 -1.912493435194E-01  4.143673693487E-01
C36 -3.507131639928E-01  1.912493435194E-01 -4.143673693487E-01
C37  3.280178598524E-01 -2.841436467174E-01  4.977680404004E-01
C38 -3.280178598524E-01  2.841436467174E-01 -4.977680404004E-01
C39  2.768485458087E-01 -1.724356660297E-03  4.255011410868E-01
C40 -2.768485458087E-01  1.724356660297E-03 -4.255011410868E-01
C41 -1.688314649157E-02 -2.921783269351E-01  3.300279246864E-01
C42  1.688314649157E-02  2.921783269351E-01 -3.300279246864E-01
C43 -1.000731334794E-01 -3.375413419941E-01  4.186294884660E-01
C44  1.000731334794E-01  3.375413419941E-01 -4.186294884660E-01
C45 -9.967740791790E-02 -1.200951736848E-01  3.021670001807E-01
C46  9.967740791790E-02  1.200951736848E-01 -3.021670001807E-01
H47  1.109007569123E-01  4.528339772170E-02  1.521470498823E-01
H48 -1.109007569123E-01 -4.528339772170E-02 -1.521470498823E-01
H49 -2.003485055669E-01  1.929551962970E-01  1.611992952354E-01
H50  2.003485055669E-01 -1.929551962970E-01 -1.611992952354E-01
H51 -4.311182179843E-01  3.703556180745E-01  9.529993170640E-02
H52  4.311182179843E-01 -3.703556180745E-01 -9.529993170640E-02
H53 -3.534976874176E-01  4.735117495524E-01 -5.028715721283E-02
H54  3.534976874176E-01 -4.735117495524E-01  5.028715721283E-02
H55 -4.516350349089E-02  4.007511887812E-01 -1.298396619400E-01
H56  4.516350349089E-02 -4.007511887812E-01  1.298396619400E-01
H57  2.703570844019E-01  2.568989947757E-01 -1.365530517280E-01
H58 -2.703570844019E-01 -2.568989947757E-01  1.365530517280E-01
H59  2.925506803455E-01  3.978086340075E-01  3.774215525167E-01
H60 -2.925506803455E-01 -3.978086340075E-01 -3.774215525167E-01
H61  2.640325730597E-01  4.071528924198E-01  1.871683444938E-01
H62 -2.640325730597E-01 -4.071528924198E-01 -1.871683444938E-01
H63  8.950709284857E-02  3.415012266383E-01  2.657108305503E-01
H64 -8.950709284857E-02 -3.415012266383E-01 -2.657108305503E-01
H65  3.006687345266E-01  2.140514868561E-01  2.409791830359E-01
H66 -3.006687345266E-01 -2.140514868561E-01 -2.409791830359E-01
H67 -4.036935302170E-01  2.947915104109E-01  2.930288820634E-01
H68  4.036935302170E-01 -2.947915104109E-01 -2.930288820634E-01
H69 -3.812163272887E-01  4.977271277140E-01  3.455674127894E-01
H70  3.812163272887E-01 -4.977271277140E-01 -3.455674127894E-01
H71 -4.027938892642E-01  4.897134547916E-01  2.363613569034E-01
H72  4.027938892642E-01 -4.897134547916E-01 -2.363613569034E-01
H73 -4.981550031325E-01 -1.903096313155E-01  3.921307541453E-01
H74  4.981550031325E-01  1.903096313155E-01 -3.921307541453E-01
H75  4.115148833980E-01 -2.239051338382E-01 -4.566558513811E-01
H76 -4.115148833980E-01  2.239051338382E-01  4.566558513811E-01
H77  3.720514826504E-01 -4.225378906677E-01  4.900427166418E-01
H78 -3.720514826504E-01  4.225378906677E-01 -4.900427166418E-01
H79  1.818822160687E-01 -2.766325705703E-01 -4.731209222474E-01
H80 -1.818822160687E-01  2.766325705703E-01  4.731209222474E-01
H81  1.247073314309E-01  5.928371919642E-03  4.442892434523E-01
H82 -1.247073314309E-01 -5.928371919642E-03 -4.442892434523E-01
H83  3.041478863852E-01  6.889013413040E-02  3.671189029969E-01
H84 -3.041478863852E-01 -6.889013413040E-02 -3.671189029969E-01
H85  3.419521562899E-01  6.697416471344E-02  4.751291999700E-01
H86 -3.419521562899E-01 -6.697416471344E-02 -4.751291999700E-01
H87 -5.158688601384E-02 -3.955429426503E-01  2.857093754608E-01
H88  5.158688601384E-02  3.955429426503E-01 -2.857093754608E-01
H89 -4.681506053588E-02 -4.654036387819E-01  4.361718885073E-01
H90  4.681506053588E-02  4.654036387819E-01 -4.361718885073E-01
H91 -2.536458028554E-01 -3.405938281727E-01  4.240265685564E-01
H92  2.536458028554E-01  3.405938281727E-01 -4.240265685564E-01
H93 -6.650356244103E-02 -2.406252711299E-01  4.657005657325E-01
H94  6.650356244103E-02  2.406252711299E-01 -4.657005657325E-01
H95 -3.872495524324E-02 -9.197229969003E-02  2.382859582464E-01
H96  3.872495524324E-02  9.197229969003E-02 -2.382859582464E-01
H97 -7.504738548095E-02 -9.651544339791E-03  3.441319541034E-01
H98  7.504738548095E-02  9.651544339791E-03 -3.441319541034E-01
H99 -2.521276355524E-01 -1.262413428098E-01  3.011362440873E-01
H100  2.521276355524E-01  1.262413428098E-01 -3.011362440873E-01


#===END

data_OPT_STEP_86

_symmetry_space_group_name_H-M 'P 1'
_cell_length_a      7.16117043
_cell_length_b      7.66414395
_cell_length_c     15.94602812
_cell_angle_alpha   91.779173
_cell_angle_beta   83.400229
_cell_angle_gamma   87.772555

loop_
_atom_site_label
_atom_site_fract_x
_atom_site_fract_y
_atom_site_fract_z
SI1  2.507965038762E-01 -3.099080472502E-01  3.233186007307E-01
SI2 -2.507965038762E-01  3.099080472502E-01 -3.233186007307E-01
C3  4.528504670852E-01 -6.346180960598E-02  8.190015235885E-02
C4 -4.528504670852E-01  6.346180960598E-02 -8.190015235885E-02
C5  3.223671742829E-01  4.515762593005E-02  4.586112760832E-02
C6 -3.223671742829E-01 -4.515762593005E-02 -4.586112760832E-02
C7  1.454177671858E-01  9.189784883745E-02  8.916080740697E-02
C8 -1.454177671858E-01 -9.189784883745E-02 -8.916080740697E-02
C9  1.476014735473E-02  1.945119315854E-01  5.396427390888E-02
C10 -1.476014735473E-02 -1.945119315854E-01 -5.396427390888E-02
C11 -1.655358929927E-01  2.406438458965E-01  9.818836031459E-02
C12  1.655358929927E-01 -2.406438458965E-01 -9.818836031459E-02
C13 -2.928766811018E-01  3.386583194761E-01  6.136054162720E-02
C14  2.928766811018E-01 -3.386583194761E-01 -6.136054162720E-02
C15 -2.486901369099E-01  3.966064026931E-01 -2.207673015279E-02
C16  2.486901369099E-01 -3.966064026931E-01  2.207673015279E-02
C17 -7.872754698344E-02  3.559905858661E-01 -6.636007884053E-02
C18  7.872754698344E-02 -3.559905858661E-01  6.636007884053E-02
C19  5.965591044069E-02  2.539375699267E-01 -3.027568386174E-02
C20 -5.965591044069E-02 -2.539375699267E-01  3.027568386174E-02
C21  2.347983504607E-01  2.111782463727E-01 -7.327277893171E-02
C22 -2.347983504607E-01 -2.111782463727E-01  7.327277893171E-02
C23  3.690256643598E-01  1.083400991731E-01 -3.762051169590E-02
C24 -3.690256643598E-01 -1.083400991731E-01  3.762051169590E-02
C25  4.004999730150E-01 -1.348307473183E-01  1.611963935642E-01
C26 -4.004999730150E-01  1.348307473183E-01 -1.611963935642E-01
C27  3.478892198552E-01 -2.031222917365E-01  2.270977894360E-01
C28 -3.478892198552E-01  2.031222917365E-01 -2.270977894360E-01
C29  3.351080334487E-01  4.506328428329E-01  3.151277804241E-01
C30 -3.351080334487E-01 -4.506328428329E-01 -3.151277804241E-01
C31  2.426682549783E-01  3.479074803104E-01  2.488082979782E-01
C32 -2.426682549783E-01 -3.479074803104E-01 -2.488082979782E-01
C33 -4.509734335277E-01  4.328457899008E-01  2.970347054226E-01
C34  4.509734335277E-01 -4.328457899008E-01 -2.970347054226E-01
C35  3.503726288415E-01 -1.917032682377E-01  4.141366219687E-01
C36 -3.503726288415E-01  1.917032682377E-01 -4.141366219687E-01
C37  3.274096765484E-01 -2.838322953312E-01  4.977705970490E-01
C38 -3.274096765484E-01  2.838322953312E-01 -4.977705970490E-01
C39  2.767971940679E-01 -2.223014233456E-03  4.246267223395E-01
C40 -2.767971940679E-01  2.223014233456E-03 -4.246267223395E-01
C41 -1.688565246746E-02 -2.936583846555E-01  3.296137164388E-01
C42  1.688565246746E-02  2.936583846555E-01 -3.296137164388E-01
C43 -1.001792670080E-01 -3.361465916139E-01  4.186278159028E-01
C44  1.001792670080E-01  3.361465916139E-01 -4.186278159028E-01
C45 -9.947396176259E-02 -1.228908981038E-01  3.002779438904E-01
C46  9.947396176259E-02  1.228908981038E-01 -3.002779438904E-01
H47  1.114007396585E-01  4.508044869285E-02  1.521750525992E-01
H48 -1.114007396585E-01 -4.508044869285E-02 -1.521750525992E-01
H49 -1.999498362574E-01  1.924944994447E-01  1.611060817150E-01
H50  1.999498362574E-01 -1.924944994447E-01 -1.611060817150E-01
H51 -4.306457938597E-01  3.700801115431E-01  9.514514660342E-02
H52  4.306457938597E-01 -3.700801115431E-01 -9.514514660342E-02
H53 -3.530684916882E-01  4.736294221406E-01 -5.046147009869E-02
H54  3.530684916882E-01 -4.736294221406E-01  5.046147009869E-02
H55 -4.493969210601E-02  4.012462677167E-01 -1.298181683089E-01
H56  4.493969210601E-02 -4.012462677167E-01  1.298181683089E-01
H57  2.704488097061E-01  2.576899770716E-01 -1.364252840581E-01
H58 -2.704488097061E-01 -2.576899770716E-01  1.364252840581E-01
H59  2.929348024721E-01  3.969163818213E-01  3.773237846123E-01
H60 -2.929348024721E-01 -3.969163818213E-01 -3.773237846123E-01
H61  2.651023862826E-01  4.069300174038E-01  1.869779747785E-01
H62 -2.651023862826E-01 -4.069300174038E-01 -1.869779747785E-01
H63  9.070928303975E-02  3.402021312724E-01  2.652416781375E-01
H64 -9.070928303975E-02 -3.402021312724E-01 -2.652416781375E-01
H65  3.023631182738E-01  2.137356111237E-01  2.406474759735E-01
H66 -3.023631182738E-01 -2.137356111237E-01 -2.406474759735E-01
H67 -4.028700320013E-01  2.948814284954E-01  2.933964230583E-01
H68  4.028700320013E-01 -2.948814284954E-01 -2.933964230583E-01
H69 -3.809749408238E-01  4.977271366255E-01  3.459502698480E-01
H70  3.809749408238E-01 -4.977271366255E-01 -3.459502698480E-01
H71 -4.021430584502E-01  4.897302927302E-01  2.366700445412E-01
H72  4.021430584502E-01 -4.897302927302E-01 -2.366700445412E-01
H73 -4.984564211140E-01 -1.909157663541E-01  3.920756798020E-01
H74  4.984564211140E-01  1.909157663541E-01 -3.920756798020E-01
H75  4.104523757189E-01 -2.228812288408E-01 -4.566234090771E-01
H76 -4.104523757189E-01  2.228812288408E-01  4.566234090771E-01
H77  3.719356576951E-01 -4.220110289415E-01  4.904252285427E-01
H78 -3.719356576951E-01  4.220110289415E-01 -4.904252285427E-01
H79  1.811708181778E-01 -2.767047433360E-01 -4.733672850431E-01
H80 -1.811708181778E-01  2.767047433360E-01  4.733672850431E-01
H81  1.245420915201E-01  5.808033106936E-03  4.430142816524E-01
H82 -1.245420915201E-01 -5.808033106936E-03 -4.430142816524E-01
H83  3.048660116073E-01  6.774724866940E-02  3.660677614608E-01
H84 -3.048660116073E-01 -6.774724866940E-02 -3.660677614608E-01
H85  3.416128338975E-01  6.680880958839E-02  4.742654818573E-01
H86 -3.416128338975E-01 -6.680880958839E-02 -4.742654818573E-01
H87 -5.176991439642E-02 -3.983687565618E-01  2.861237098279E-01
H88  5.176991439642E-02  3.983687565618E-01 -2.861237098279E-01
H89 -4.710451397904E-02 -4.632652031585E-01  4.372758312368E-01
H90  4.710451397904E-02  4.632652031585E-01 -4.372758312368E-01
H91 -2.537562585430E-01 -3.392819586416E-01  4.239235599425E-01
H92  2.537562585430E-01  3.392819586416E-01 -4.239235599425E-01
H93 -6.660889789819E-02 -2.376787136206E-01  4.649864031016E-01
H94  6.660889789819E-02  2.376787136206E-01 -4.649864031016E-01
H95 -4.052662826213E-02 -9.826734011854E-02  2.355885981906E-01
H96  4.052662826213E-02  9.826734011854E-02 -2.355885981906E-01
H97 -7.224928376427E-02 -1.063134377095E-02  3.406328430960E-01
H98  7.224928376427E-02  1.063134377095E-02 -3.406328430960E-01
H99 -2.524652665927E-01 -1.285541837305E-01  3.004912693891E-01
H100  2.524652665927E-01  1.285541837305E-01 -3.004912693891E-01


#===END

data_OPT_STEP_87

_symmetry_space_group_name_H-M 'P 1'
_cell_length_a      7.16835784
_cell_length_b      7.65796643
_cell_length_c     15.97447855
_cell_angle_alpha   91.769429
_cell_angle_beta   83.236628
_cell_angle_gamma   87.638509

loop_
_atom_site_label
_atom_site_fract_x
_atom_site_fract_y
_atom_site_fract_z
SI1  2.487058994987E-01 -3.095858139802E-01  3.228312826214E-01
SI2 -2.487058994987E-01  3.095858139802E-01 -3.228312826214E-01
C3  4.521751803740E-01 -6.440816573280E-02  8.148219505933E-02
C4 -4.521751803740E-01  6.440816573280E-02 -8.148219505933E-02
C5  3.218474160855E-01  4.470527758876E-02  4.579265493618E-02
C6 -3.218474160855E-01 -4.470527758876E-02 -4.579265493618E-02
C7  1.442181498058E-01  9.039422234867E-02  8.880330571859E-02
C8 -1.442181498058E-01 -9.039422234867E-02 -8.880330571859E-02
C9  1.387809790516E-02  1.933404721832E-01  5.369976435510E-02
C10 -1.387809790516E-02 -1.933404721832E-01 -5.369976435510E-02
C11 -1.672887807162E-01  2.382922012065E-01  9.757266021927E-02
C12  1.672887807162E-01 -2.382922012065E-01 -9.757266021927E-02
C13 -2.941745614061E-01  3.370592543563E-01  6.094274742433E-02
C14  2.941745614061E-01 -3.370592543563E-01 -6.094274742433E-02
C15 -2.488273417538E-01  3.969746753781E-01 -2.198098878822E-02
C16  2.488273417538E-01 -3.969746753781E-01  2.198098878822E-02
C17 -7.801094133284E-02  3.573684157204E-01 -6.590178300981E-02
C18  7.801094133284E-02 -3.573684157204E-01  6.590178300981E-02
C19  5.995151304995E-02  2.545332635146E-01 -2.998701599425E-02
C20 -5.995151304995E-02 -2.545332635146E-01  2.998701599425E-02
C21  2.358048779090E-01  2.126858872455E-01 -7.267495079085E-02
C22 -2.358048779090E-01 -2.126858872455E-01  7.267495079085E-02
C23  3.695547867862E-01  1.091421054884E-01 -3.725290908343E-02
C24 -3.695547867862E-01 -1.091421054884E-01  3.725290908343E-02
C25  4.001775307026E-01 -1.360995965226E-01  1.607007274687E-01
C26 -4.001775307026E-01  1.360995965226E-01 -1.607007274687E-01
C27  3.463466282067E-01 -2.032479790335E-01  2.266702716907E-01
C28 -3.463466282067E-01  2.032479790335E-01 -2.266702716907E-01
C29  3.312927108431E-01  4.501314049311E-01  3.148255890042E-01
C30 -3.312927108431E-01 -4.501314049311E-01 -3.148255890042E-01
C31  2.400755455572E-01  3.476951394026E-01  2.482483219056E-01
C32 -2.400755455572E-01 -3.476951394026E-01 -2.482483219056E-01
C33 -4.547455357601E-01  4.300624520876E-01  2.977342831652E-01
C34  4.547455357601E-01 -4.300624520876E-01 -2.977342831652E-01
C35  3.492851795165E-01 -1.918623362308E-01  4.130799873114E-01
C36 -3.492851795165E-01  1.918623362308E-01 -4.130799873114E-01
C37  3.235504751686E-01 -2.828282674079E-01  4.967562009523E-01
C38 -3.235504751686E-01  2.828282674079E-01 -4.967562009523E-01
C39  2.790623565439E-01 -1.152430497425E-03  4.224142778389E-01
C40 -2.790623565439E-01  1.152430497425E-03 -4.224142778389E-01
C41 -1.920284986716E-02 -2.912585530358E-01  3.295912110083E-01
C42  1.920284986716E-02  2.912585530358E-01 -3.295912110083E-01
C43 -1.042694545807E-01 -3.318711942738E-01  4.182533298453E-01
C44  1.042694545807E-01  3.318711942738E-01 -4.182533298453E-01
C45 -1.002297355734E-01 -1.210332405295E-01  2.996085179112E-01
C46  1.002297355734E-01  1.210332405295E-01 -2.996085179112E-01
H47  1.090582751577E-01  4.157772315668E-02  1.512918828264E-01
H48 -1.090582751577E-01 -4.157772315668E-02 -1.512918828264E-01
H49 -2.027525226727E-01  1.887165373873E-01  1.601115790840E-01
H50  2.027525226727E-01 -1.887165373873E-01 -1.601115790840E-01
H51 -4.325048395887E-01  3.670026834020E-01  9.449959886328E-02
H52  4.325048395887E-01 -3.670026834020E-01 -9.449959886328E-02
H53 -3.524196752462E-01  4.747298761778E-01 -5.041865558933E-02
H54  3.524196752462E-01 -4.747298761778E-01  5.041865558933E-02
H55 -4.288752364389E-02  4.045215635027E-01 -1.288897805458E-01
H56  4.288752364389E-02 -4.045215635027E-01  1.288897805458E-01
H57  2.721325834345E-01  2.602948347265E-01 -1.355209577678E-01
H58 -2.721325834345E-01 -2.602948347265E-01  1.355209577678E-01
H59  2.871629429182E-01  3.970265701800E-01  3.768531376093E-01
H60 -2.871629429182E-01 -3.970265701800E-01 -3.768531376093E-01
H61  2.651708612521E-01  4.056635901763E-01  1.864260325855E-01
H62 -2.651708612521E-01 -4.056635901763E-01 -1.864260325855E-01
H63  8.771154288420E-02  3.418446639906E-01  2.637181820655E-01
H64 -8.771154288420E-02 -3.418446639906E-01 -2.637181820655E-01
H65  2.986077326069E-01  2.128760026507E-01  2.408569047592E-01
H66 -2.986077326069E-01 -2.128760026507E-01 -2.408569047592E-01
H67 -4.080203293161E-01  2.914337904174E-01  2.938824562272E-01
H68  4.080203293161E-01 -2.914337904174E-01 -2.938824562272E-01
H69 -3.856379096170E-01  4.934348546389E-01  3.471993227009E-01
H70  3.856379096170E-01 -4.934348546389E-01 -3.471993227009E-01
H71 -4.036009915299E-01  4.870837569832E-01  2.378401217119E-01
H72  4.036009915299E-01 -4.870837569832E-01 -2.378401217119E-01
H73 -4.994262465280E-01 -1.940933306946E-01  3.910844363960E-01
H74  4.994262465280E-01  1.940933306946E-01 -3.910844363960E-01
H75  4.020295408300E-01 -2.198355470408E-01 -4.567308428052E-01
H76 -4.020295408300E-01  2.198355470408E-01  4.567308428052E-01
H77  3.716390095527E-01 -4.204203731228E-01  4.900118157988E-01
H78 -3.716390095527E-01  4.204203731228E-01 -4.900118157988E-01
H79  1.761810184878E-01 -2.783923356521E-01 -4.759845341412E-01
H80 -1.761810184878E-01  2.783923356521E-01  4.759845341412E-01
H81  1.268696160691E-01  1.017525588744E-02  4.408681992412E-01
H82 -1.268696160691E-01 -1.017525588744E-02 -4.408681992412E-01
H83  3.090352251415E-01  6.664257767380E-02  3.633783005222E-01
H84 -3.090352251415E-01 -6.664257767380E-02 -3.633783005222E-01
H85  3.451672629542E-01  6.775688986438E-02  4.713155647071E-01
H86 -3.451672629542E-01 -6.775688986438E-02 -4.713155647071E-01
H87 -5.406275935263E-02 -3.964156281994E-01  2.867974657191E-01
H88  5.406275935263E-02  3.964156281994E-01 -2.867974657191E-01
H89 -5.202038648181E-02 -4.586040997628E-01  4.375538243774E-01
H90  5.202038648181E-02  4.586040997628E-01 -4.375538243774E-01
H91 -2.577606722751E-01 -3.347384329870E-01  4.229400227562E-01
H92  2.577606722751E-01  3.347384329870E-01 -4.229400227562E-01
H93 -7.191652209507E-02 -2.330466171287E-01  4.642968028647E-01
H94  7.191652209507E-02  2.330466171287E-01 -4.642968028647E-01
H95 -4.367058671347E-02 -1.006962259650E-01  2.344959453567E-01
H96  4.367058671347E-02  1.006962259650E-01 -2.344959453567E-01
H97 -6.848563081454E-02 -7.888809649346E-03  3.378200721273E-01
H98  6.848563081454E-02  7.888809649346E-03 -3.378200721273E-01
H99 -2.539039168925E-01 -1.235136446776E-01  3.017929164646E-01
H100  2.539039168925E-01  1.235136446776E-01 -3.017929164646E-01


#===END

data_OPT_STEP_88

_symmetry_space_group_name_H-M 'P 1'
_cell_length_a      7.16341577
_cell_length_b      7.66428255
_cell_length_c     15.94673796
_cell_angle_alpha   91.783009
_cell_angle_beta   83.377265
_cell_angle_gamma   87.720059

loop_
_atom_site_label
_atom_site_fract_x
_atom_site_fract_y
_atom_site_fract_z
SI1  2.504438835514E-01 -3.097930782073E-01  3.232735039230E-01
SI2 -2.504438835514E-01  3.097930782073E-01 -3.232735039230E-01
C3  4.527070910129E-01 -6.378051695144E-02  8.178954888391E-02
C4 -4.527070910129E-01  6.378051695144E-02 -8.178954888391E-02
C5  3.222350334509E-01  4.500943454673E-02  4.585579974998E-02
C6 -3.222350334509E-01 -4.500943454673E-02 -4.585579974998E-02
C7  1.450988654273E-01  9.137447420591E-02  8.907241608260E-02
C8 -1.450988654273E-01 -9.137447420591E-02 -8.907241608260E-02
C9  1.451172996787E-02  1.940904497927E-01  5.389541904367E-02
C10 -1.451172996787E-02 -1.940904497927E-01 -5.389541904367E-02
C11 -1.660506835717E-01  2.397769525862E-01  9.802065984458E-02
C12  1.660506835717E-01 -2.397769525862E-01 -9.802065984458E-02
C13 -2.932883906218E-01  3.380525366790E-01  6.125735137077E-02
C14  2.932883906218E-01 -3.380525366790E-01 -6.125735137077E-02
C15 -2.487908465271E-01  3.967186101874E-01 -2.203656071473E-02
C16  2.487908465271E-01 -3.967186101874E-01  2.203656071473E-02
C17 -7.857051148631E-02  3.564856211416E-01 -6.622250350608E-02
C18  7.857051148631E-02 -3.564856211416E-01  6.622250350608E-02
C19  5.972437786166E-02  2.541454483751E-01 -3.019157343076E-02
C20 -5.972437786166E-02 -2.541454483751E-01  3.019157343076E-02
C21  2.350663917333E-01  2.116892543445E-01 -7.310385684184E-02
C22 -2.350663917333E-01 -2.116892543445E-01  7.310385684184E-02
C23  3.691614904202E-01  1.086182834564E-01 -3.751252203092E-02
C24 -3.691614904202E-01 -1.086182834564E-01  3.751252203092E-02
C25  4.005555378268E-01 -1.352485953085E-01  1.610921617951E-01
C26 -4.005555378268E-01  1.352485953085E-01 -1.610921617951E-01
C27  3.475600450319E-01 -2.031540246259E-01  2.270318781346E-01
C28 -3.475600450319E-01  2.031540246259E-01 -2.270318781346E-01
C29  3.344294381173E-01  4.505870429693E-01  3.151194426890E-01
C30 -3.344294381173E-01 -4.505870429693E-01 -3.151194426890E-01
C31  2.422498896461E-01  3.478537264748E-01  2.487436387819E-01
C32 -2.422498896461E-01 -3.478537264748E-01 -2.487436387819E-01
C33 -4.516262455038E-01  4.322574393875E-01  2.972461366508E-01
C34  4.516262455038E-01 -4.322574393875E-01 -2.972461366508E-01
C35  3.502329376358E-01 -1.916245937149E-01  4.139725101521E-01
C36 -3.502329376358E-01  1.916245937149E-01 -4.139725101521E-01
C37  3.266024001591E-01 -2.834203474001E-01  4.976289168805E-01
C38 -3.266024001591E-01  2.834203474001E-01 -4.976289168805E-01
C39  2.773464911611E-01 -1.896201032227E-03  4.241182439445E-01
C40 -2.773464911611E-01  1.896201032227E-03 -4.241182439445E-01
C41 -1.734608443305E-02 -2.930318688379E-01  3.296996806661E-01
C42  1.734608443305E-02  2.930318688379E-01 -3.296996806661E-01
C43 -1.011180456492E-01 -3.348869797828E-01  4.186147359801E-01
C44  1.011180456492E-01  3.348869797828E-01 -4.186147359801E-01
C45 -9.957613092411E-02 -1.225399195488E-01  3.001412382920E-01
C46  9.957613092411E-02  1.225399195488E-01 -3.001412382920E-01
H47  1.107435963127E-01  4.383321750017E-02  1.519243931423E-01
H48 -1.107435963127E-01 -4.383321750017E-02 -1.519243931423E-01
H49 -2.007625192884E-01  1.910939060824E-01  1.608297065495E-01
H50  2.007625192884E-01 -1.910939060824E-01 -1.608297065495E-01
H51 -4.312320395142E-01  3.688813711790E-01  9.498458016630E-02
H52  4.312320395142E-01 -3.688813711790E-01 -9.498458016630E-02
H53 -3.529671123607E-01  4.739750509174E-01 -5.043770985161E-02
H54  3.529671123607E-01 -4.739750509174E-01  5.043770985161E-02
H55 -4.439295016915E-02  4.024369565796E-01 -1.295404904924E-01
H56  4.439295016915E-02 -4.024369565796E-01  1.295404904924E-01
H57  2.708724045585E-01  2.585299517567E-01 -1.361919356272E-01
H58 -2.708724045585E-01 -2.585299517567E-01  1.361919356272E-01
H59  2.919062141292E-01  3.970778651615E-01  3.773054896009E-01
H60 -2.919062141292E-01 -3.970778651615E-01 -3.773054896009E-01
H61  2.652673190653E-01  4.064974322210E-01  1.868780049478E-01
H62 -2.652673190653E-01 -4.064974322210E-01 -1.868780049478E-01
H63  9.017696634540E-02  3.406388788405E-01  2.649307309801E-01
H64 -9.017696634540E-02 -3.406388788405E-01 -2.649307309801E-01
H65  3.017109270111E-01  2.135449309407E-01  2.408201923969E-01
H66 -3.017109270111E-01 -2.135449309407E-01 -2.408201923969E-01
H67 -4.038114982907E-01  2.941356943681E-01  2.935401490575E-01
H68  4.038114982907E-01 -2.941356943681E-01 -2.935401490575E-01
H69 -3.817746883984E-01  4.967615810110E-01  3.463109251693E-01
H70  3.817746883984E-01 -4.967615810110E-01 -3.463109251693E-01
H71 -4.023441476960E-01  4.891746902471E-01  2.369817823513E-01
H72  4.023441476960E-01 -4.891746902471E-01 -2.369817823513E-01
H73 -4.985586142989E-01 -1.915631796695E-01  3.919549949919E-01
H74  4.985586142989E-01  1.915631796695E-01 -3.919549949919E-01
H75  4.080475569027E-01 -2.217150392982E-01 -4.564220344687E-01
H76 -4.080475569027E-01  2.217150392982E-01  4.564220344687E-01
H77  3.725870151920E-01 -4.212927628917E-01  4.904481509718E-01
H78 -3.725870151919E-01  4.212927628917E-01 -4.904481509718E-01
H79  1.800113219080E-01 -2.774629376656E-01 -4.740405365778E-01
H80 -1.800113219080E-01  2.774629376656E-01  4.740405365778E-01
H81  1.251024310509E-01  6.940533270390E-03  4.425053152651E-01
H82 -1.251024310509E-01 -6.940533270390E-03 -4.425053152651E-01
H83  3.058756890696E-01  6.741828364211E-02  3.653989023720E-01
H84 -3.058756890696E-01 -6.741828364211E-02 -3.653989023720E-01
H85  3.424348950806E-01  6.719237091400E-02  4.735749649091E-01
H86 -3.424348950806E-01 -6.719237091400E-02 -4.735749649091E-01
H87 -5.219954056535E-02 -3.979436955434E-01  2.864167026164E-01
H88  5.219954056535E-02  3.979436955434E-01 -2.864167026164E-01
H89 -4.834986555390E-02 -4.618321952957E-01  4.374372344369E-01
H90  4.834986555390E-02  4.618321952957E-01 -4.374372344369E-01
H91 -2.546886255985E-01 -3.378501546888E-01  4.237379696610E-01
H92  2.546886255985E-01  3.378501546888E-01 -4.237379696610E-01
H93 -6.780301446204E-02 -2.364344155441E-01  4.648960477839E-01
H94  6.780301446204E-02  2.364344155441E-01 -4.648960477839E-01
H95 -4.129506286977E-02 -9.914540301420E-02  2.354159020919E-01
H96  4.129506286977E-02  9.914540301420E-02 -2.354159020919E-01
H97 -7.118783409817E-02 -1.011315783363E-02  3.398771445965E-01
H98  7.118783409817E-02  1.011315783363E-02 -3.398771445965E-01
H99 -2.526929405627E-01 -1.272640431823E-01  3.008150711259E-01
H100  2.526929405627E-01  1.272640431823E-01 -3.008150711259E-01


#===END

data_OPT_STEP_89

_symmetry_space_group_name_H-M 'P 1'
_cell_length_a      7.16158017
_cell_length_b      7.66427861
_cell_length_c     15.94543593
_cell_angle_alpha   91.781554
_cell_angle_beta   83.398890
_cell_angle_gamma   87.757441

loop_
_atom_site_label
_atom_site_fract_x
_atom_site_fract_y
_atom_site_fract_z
SI1  2.507611591021E-01 -3.098598227281E-01  3.233241548451E-01
SI2 -2.507611591021E-01  3.098598227281E-01 -3.233241548451E-01
C3  4.528197052771E-01 -6.354173352626E-02  8.187225964765E-02
C4 -4.528197052771E-01  6.354173352626E-02 -8.187225964765E-02
C5  3.223336528136E-01  4.513340235568E-02  4.586095982063E-02
C6 -3.223336528136E-01 -4.513340235568E-02 -4.586095982063E-02
C7  1.453345484275E-01  9.176616731916E-02  8.913672738056E-02
C8 -1.453345484275E-01 -9.176616731916E-02 -8.913672738056E-02
C9  1.469678309382E-02  1.944050466940E-01  5.394249985019E-02
C10 -1.469678309382E-02 -1.944050466940E-01 -5.394249985019E-02
C11 -1.656791305115E-01  2.404001146067E-01  9.814496246494E-02
C12  1.656791305115E-01 -2.404001146067E-01 -9.814496246494E-02
C13 -2.930067022750E-01  3.384819644199E-01  6.133697602045E-02
C14  2.930067022750E-01 -3.384819644199E-01 -6.133697602045E-02
C15 -2.487463219110E-01  3.966396409101E-01 -2.206922553174E-02
C16  2.487463219110E-01 -3.966396409101E-01  2.206922553174E-02
C17 -7.870515694024E-02  3.561486964034E-01 -6.633100799062E-02
C18  7.870515694024E-02 -3.561486964034E-01  6.633100799062E-02
C19  5.967364218588E-02  2.540098378139E-01 -3.026145025836E-02
C20 -5.967364218588E-02 -2.540098378139E-01  3.026145025836E-02
C21  2.348710431802E-01  2.113209151091E-01 -7.323652984641E-02
C22 -2.348710431802E-01 -2.113209151091E-01  7.323652984641E-02
C23  3.690601474652E-01  1.084277739818E-01 -3.759363649196E-02
C24 -3.690601474652E-01 -1.084277739818E-01  3.759363649196E-02
C25  4.005495763196E-01 -1.349253097566E-01  1.611787924307E-01
C26 -4.005495763196E-01  1.349253097566E-01 -1.611787924307E-01
C27  3.478201022028E-01 -2.030960578607E-01  2.270920700800E-01
C28 -3.478201022028E-01  2.030960578607E-01 -2.270920700800E-01
C29  3.350205172831E-01  4.506451739764E-01  3.151290761230E-01
C30 -3.350205172831E-01 -4.506451739764E-01 -3.151290761230E-01
C31  2.426106816951E-01  3.478887674430E-01  2.488091992797E-01
C32 -2.426106816951E-01 -3.478887674430E-01 -2.488091992797E-01
C33 -4.510378260457E-01  4.327418010820E-01  2.970731425283E-01
C34  4.510378260457E-01 -4.327418010820E-01 -2.970731425283E-01
C35  3.503790730949E-01 -1.916443436171E-01  4.141197377386E-01
C36 -3.503790730949E-01  1.916443436171E-01 -4.141197377386E-01
C37  3.272954022934E-01 -2.837339618106E-01  4.977415312510E-01
C38 -3.272954022934E-01  2.837339618106E-01 -4.977415312510E-01
C39  2.768777006146E-01 -2.132474041429E-03  4.245294570713E-01
C40 -2.768777006146E-01  2.132474041429E-03 -4.245294570713E-01
C41 -1.698072929921E-02 -2.935018711457E-01  3.296573565029E-01
C42  1.698072929921E-02  2.935018711457E-01 -3.296573565029E-01
C43 -1.004025944671E-01 -3.358236984724E-01  4.186278676433E-01
C44  1.004025944671E-01  3.358236984724E-01 -4.186278676433E-01
C45 -9.949722019284E-02 -1.228290897419E-01  3.002640781774E-01
C46  9.949722019284E-02  1.228290897419E-01 -3.002640781774E-01
H47  1.112076328377E-01  4.470420792593E-02  1.521019374386E-01
H48 -1.112076328377E-01 -4.470420792593E-02 -1.521019374386E-01
H49 -2.001720920168E-01  1.920845493382E-01  1.610383941638E-01
H50  2.001720920168E-01 -1.920845493382E-01 -1.610383941638E-01
H51 -4.308324624758E-01  3.696762255918E-01  9.511498109934E-02
H52  4.308324624758E-01 -3.696762255918E-01 -9.511498109934E-02
H53 -3.530959023443E-01  4.737043249793E-01 -5.045827193577E-02
H54  3.530959023443E-01 -4.737043249793E-01  5.045827193577E-02
H55 -4.481148887804E-02  4.016162427173E-01 -1.297545667906E-01
H56  4.481148887804E-02 -4.016162427173E-01  1.297545667906E-01
H57  2.705503280525E-01  2.578821760549E-01 -1.363863265314E-01
H58 -2.705503280525E-01 -2.578821760549E-01  1.363863265314E-01
H59  2.928151534649E-01  3.969882381255E-01  3.773284801183E-01
H60 -2.928151534649E-01 -3.969882381255E-01 -3.773284801183E-01
H61  2.651474872366E-01  4.067839559339E-01  1.869632696789E-01
H62 -2.651474872366E-01 -4.067839559339E-01 -1.869632696789E-01
H63  9.061025412746E-02  3.403058503302E-01  2.651840455204E-01
H64 -9.061025412746E-02 -3.403058503302E-01 -2.651840455204E-01
H65  3.022725471116E-01  2.136907746837E-01  2.407214799858E-01
H66 -3.022725471116E-01 -2.136907746837E-01 -2.407214799858E-01
H67 -4.029906251366E-01  2.947298418899E-01  2.934102806511E-01
H68  4.029906251366E-01 -2.947298418899E-01 -2.934102806511E-01
H69 -3.810340113305E-01  4.975301660301E-01  3.460239092418E-01
H70  3.810340113305E-01 -4.975301660301E-01 -3.460239092418E-01
H71 -4.021463771301E-01  4.896511912015E-01  2.367323676438E-01
H72  4.021463771301E-01 -4.896511912015E-01 -2.367323676438E-01
H73 -4.984269487995E-01 -1.909800985945E-01  3.920782972053E-01
H74  4.984269487995E-01  1.909800985945E-01 -3.920782972053E-01
H75  4.098112464298E-01 -2.225511112259E-01 -4.565348832834E-01
H76 -4.098112464298E-01  2.225511112259E-01  4.565348832834E-01
H77  3.723837414992E-01 -4.217730443910E-01  4.904237955224E-01
H78 -3.723837414992E-01  4.217730443910E-01 -4.904237955224E-01
H79  1.809536401004E-01 -2.770967387111E-01 -4.735614855845E-01
H80 -1.809536401004E-01  2.770967387111E-01  4.735614855845E-01
H81  1.246189352787E-01  6.042315652744E-03  4.429278238102E-01
H82 -1.246189352787E-01 -6.042315652744E-03 -4.429278238102E-01
H83  3.050080007373E-01  6.767249095930E-02  3.659271981492E-01
H84 -3.050080007373E-01 -6.767249095930E-02 -3.659271981492E-01
H85  3.417578296231E-01  6.695159364348E-02  4.741166479854E-01
H86 -3.417578296231E-01 -6.695159364348E-02 -4.741166479854E-01
H87 -5.185021609804E-02 -3.982973980926E-01  2.862279233298E-01
H88  5.185021609804E-02  3.982973980926E-01 -2.862279233298E-01
H89 -4.744147765754E-02 -4.628763615170E-01  4.373015895699E-01
H90  4.744147765754E-02  4.628763615170E-01 -4.373015895699E-01
H91 -2.539964157949E-01 -3.388767048871E-01  4.238837198253E-01
H92  2.539964157949E-01  3.388767048871E-01 -4.238837198253E-01
H93 -6.685115732045E-02 -2.374375752051E-01  4.649662764674E-01
H94  6.685115732045E-02  2.374375752051E-01 -4.649662764674E-01
H95 -4.065362604674E-02 -9.845817639909E-02  2.356390013904E-01
H96  4.065362604674E-02  9.845817639909E-02 -2.356390013904E-01
H97 -7.209200381322E-02 -1.060107603109E-02  3.404690987385E-01
H98  7.209200381322E-02  1.060107603109E-02 -3.404690987385E-01
H99 -2.524712865982E-01 -1.282341438336E-01  3.005155608747E-01
H100  2.524712865982E-01  1.282341438336E-01 -3.005155608747E-01


#===END

data_OPT_STEP_90

_symmetry_space_group_name_H-M 'P 1'
_cell_length_a      7.15964673
_cell_length_b      7.66548135
_cell_length_c     15.95064641
_cell_angle_alpha   91.769828
_cell_angle_beta   83.387728
_cell_angle_gamma   87.789770

loop_
_atom_site_label
_atom_site_fract_x
_atom_site_fract_y
_atom_site_fract_z
SI1  2.504852821366E-01 -3.100658545424E-01  3.232383094011E-01
SI2 -2.504852821366E-01  3.100658545424E-01 -3.232383094011E-01
C3  4.527257432566E-01 -6.359372632057E-02  8.184582013195E-02
C4 -4.527257432566E-01  6.359372632057E-02 -8.184582013195E-02
C5  3.222930209024E-01  4.511465002336E-02  4.584841900158E-02
C6 -3.222930209024E-01 -4.511465002336E-02 -4.584841900158E-02
C7  1.452531603532E-01  9.172352109089E-02  8.911610822530E-02
C8 -1.452531603532E-01 -9.172352109089E-02 -8.911610822530E-02
C9  1.466714472153E-02  1.943889426880E-01  5.393689368080E-02
C10 -1.466714472153E-02 -1.943889426880E-01 -5.393689368080E-02
C11 -1.657767973749E-01  2.403135062500E-01  9.811017429611E-02
C12  1.657767973749E-01 -2.403135062500E-01 -9.811017429611E-02
C13 -2.930671938197E-01  3.383669954500E-01  6.129933629221E-02
C14  2.930671938197E-01 -3.383669954500E-01 -6.129933629221E-02
C15 -2.486818216484E-01  3.966011131365E-01 -2.207334987221E-02
C16  2.486818216484E-01 -3.966011131365E-01  2.207334987221E-02
C17 -7.857388914302E-02  3.562034497719E-01 -6.630648633107E-02
C18  7.857388914302E-02 -3.562034497719E-01  6.630648633107E-02
C19  5.975588674134E-02  2.540608319193E-01 -3.024167926529E-02
C20 -5.975588674134E-02 -2.540608319193E-01  3.024167926529E-02
C21  2.349936400173E-01  2.114072274487E-01 -7.320332375415E-02
C22 -2.349936400173E-01 -2.114072274487E-01  7.320332375415E-02
C23  3.691115894138E-01  1.084615793017E-01 -3.757931454939E-02
C24 -3.691115894138E-01 -1.084615793017E-01  3.757931454939E-02
C25  4.003450689533E-01 -1.350417375127E-01  1.611135547932E-01
C26 -4.003450689533E-01  1.350417375127E-01 -1.611135547932E-01
C27  3.475493134826E-01 -2.033386660371E-01  2.269831039388E-01
C28 -3.475493134826E-01  2.033386660371E-01 -2.269831039388E-01
C29  3.347426814280E-01  4.505198176003E-01  3.150921377810E-01
C30 -3.347426814280E-01 -4.505198176003E-01 -3.150921377810E-01
C31  2.424514612795E-01  3.478223846161E-01  2.487441779602E-01
C32 -2.424514612795E-01 -3.478223846161E-01 -2.487441779602E-01
C33 -4.512518648503E-01  4.327161488351E-01  2.971056793206E-01
C34  4.512518648503E-01 -4.327161488351E-01 -2.971056793206E-01
C35  3.501400941381E-01 -1.916945340039E-01  4.139441319997E-01
C36 -3.501400941381E-01  1.916945340039E-01 -4.139441319997E-01
C37  3.273183512327E-01 -2.838215222113E-01  4.975560148738E-01
C38 -3.273183512327E-01  2.838215222113E-01 -4.975560148738E-01
C39  2.764623897597E-01 -2.290203461199E-03  4.243153207454E-01
C40 -2.764623897597E-01  2.290203461199E-03 -4.243153207454E-01
C41 -1.731313223864E-02 -2.937252238648E-01  3.295768632830E-01
C42  1.731313223864E-02  2.937252238648E-01 -3.295768632830E-01
C43 -1.008278079598E-01 -3.353947390091E-01  4.186287542770E-01
C44  1.008278079598E-01  3.353947390091E-01 -4.186287542770E-01
C45 -9.959068890344E-02 -1.232349695650E-01  2.998486380320E-01
C46  9.959068890344E-02  1.232349695650E-01 -2.998486380320E-01
H47  1.110519083620E-01  4.464503262647E-02  1.520703136190E-01
H48 -1.110519083620E-01 -4.464503262647E-02 -1.520703136190E-01
H49 -2.003735433671E-01  1.918946530339E-01  1.609660122438E-01
H50  2.003735433671E-01 -1.918946530339E-01 -1.609660122438E-01
H51 -4.309685449009E-01  3.694598992723E-01  9.504850142352E-02
H52  4.309685449009E-01 -3.694598992723E-01 -9.504850142352E-02
H53 -3.530217896659E-01  4.736030193402E-01 -5.047420231670E-02
H54  3.530217896659E-01 -4.736030193402E-01  5.047420231670E-02
H55 -4.459490561614E-02  4.017407395993E-01 -1.297014696258E-01
H56  4.459490561614E-02 -4.017407395993E-01  1.297014696258E-01
H57  2.707606524022E-01  2.580426100651E-01 -1.363214392259E-01
H58 -2.707606524022E-01 -2.580426100651E-01  1.363214392259E-01
H59  2.923805048377E-01  3.968202617409E-01  3.772616017402E-01
H60 -2.923805048377E-01 -3.968202617409E-01 -3.772616017402E-01
H61  2.650989843026E-01  4.068041431578E-01  1.869310569597E-01
H62 -2.650989843026E-01 -4.068041431578E-01 -1.869310569597E-01
H63  9.040995728358E-02  3.401581980254E-01  2.650785221839E-01
H64 -9.040995728358E-02 -3.401581980254E-01 -2.650785221839E-01
H65  3.021263160631E-01  2.136851365974E-01  2.406393863488E-01
H66 -3.021263160631E-01 -2.136851365974E-01 -2.406393863488E-01
H67 -4.032362996613E-01  2.947476982542E-01  2.934514438710E-01
H68  4.032362996613E-01 -2.947476982542E-01 -2.934514438710E-01
H69 -3.813178617941E-01  4.974725497056E-01  3.460700143308E-01
H70  3.813178617941E-01 -4.974725497056E-01 -3.460700143308E-01
H71 -4.022245196165E-01  4.896603619597E-01  2.367888952905E-01
H72  4.022245196165E-01 -4.896603619597E-01 -2.367888952905E-01
H73 -4.986389471797E-01 -1.908040526230E-01  3.918588045002E-01
H74  4.986389471797E-01  1.908040526230E-01 -3.918588045002E-01
H75  4.097525239449E-01 -2.223979491648E-01 -4.567637602525E-01
H76 -4.097525239449E-01  2.223979491648E-01  4.567637602525E-01
H77  3.727916379727E-01 -4.217299832359E-01  4.902420434277E-01
H78 -3.727916379727E-01  4.217299832359E-01 -4.902420434277E-01
H79  1.809394981911E-01 -2.775925365553E-01 -4.737254102966E-01
H80 -1.809394981911E-01  2.775925365553E-01  4.737254102966E-01
H81  1.241754226890E-01  5.718918375312E-03  4.427686207960E-01
H82 -1.241754226890E-01 -5.718918375312E-03 -4.427686207960E-01
H83  3.044077765556E-01  6.746076926599E-02  3.657011490577E-01
H84 -3.044077765556E-01 -6.746076926599E-02 -3.657011490577E-01
H85  3.414183856157E-01  6.697011625008E-02  4.738187422575E-01
H86 -3.414183856157E-01 -6.697011625008E-02 -4.738187422575E-01
H87 -5.229996328574E-02 -3.988350531536E-01  2.863460337192E-01
H88  5.229996328574E-02  3.988350531536E-01 -2.863460337192E-01
H89 -4.795829994774E-02 -4.622708273972E-01  4.374950815294E-01
H90  4.795829994774E-02  4.622708273972E-01 -4.374950815294E-01
H91 -2.544804528382E-01 -3.384644727752E-01  4.239437734296E-01
H92  2.544804528382E-01  3.384644727752E-01 -4.239437734296E-01
H93 -6.713763170818E-02 -2.367381553462E-01  4.647742538700E-01
H94  6.713763170818E-02  2.367381553462E-01 -4.647742538700E-01
H95 -4.066831475219E-02 -9.944047209593E-02  2.351850854254E-01
H96  4.066831475219E-02  9.944047209593E-02 -2.351850854254E-01
H97 -7.208778070118E-02 -1.069314847138E-02  3.398019715912E-01
H98  7.208778070118E-02  1.069314847138E-02 -3.398019715912E-01
H99 -2.525055811673E-01 -1.284883304984E-01  3.000842567592E-01
H100  2.525055811673E-01  1.284883304984E-01 -3.000842567592E-01


#===END

data_OPT_STEP_91

_symmetry_space_group_name_H-M 'P 1'
_cell_length_a      7.16108468
_cell_length_b      7.66460731
_cell_length_c     15.94638248
_cell_angle_alpha   91.779852
_cell_angle_beta   83.397377
_cell_angle_gamma   87.766478

loop_
_atom_site_label
_atom_site_fract_x
_atom_site_fract_y
_atom_site_fract_z
SI1  2.507085362594E-01 -3.099266615297E-01  3.233097589591E-01
SI2 -2.507085362594E-01  3.099266615297E-01 -3.233097589591E-01
C3  4.528003208994E-01 -6.355478504353E-02  8.186940216820E-02
C4 -4.528003208994E-01  6.355478504353E-02 -8.186940216820E-02
C5  3.223266890809E-01  4.512813724558E-02  4.585721921688E-02
C6 -3.223266890809E-01 -4.512813724558E-02 -4.585721921688E-02
C7  1.453204254397E-01  9.175638341022E-02  8.913311703638E-02
C8 -1.453204254397E-01 -9.175638341022E-02 -8.913311703638E-02
C9  1.469671775972E-02  1.944074549973E-01  5.394463605650E-02
C10 -1.469671775972E-02 -1.944074549973E-01 -5.394463605650E-02
C11 -1.656949921978E-01  2.403783753641E-01  9.814050657991E-02
C12  1.656949921978E-01 -2.403783753641E-01 -9.814050657991E-02
C13 -2.930198554357E-01  3.384407281764E-01  6.133009880595E-02
C14  2.930198554357E-01 -3.384407281764E-01 -6.133009880595E-02
C15 -2.487289166143E-01  3.966189626874E-01 -2.206904634443E-02
C16  2.487289166143E-01 -3.966189626874E-01  2.206904634443E-02
C17 -7.867306340076E-02  3.561639759356E-01 -6.632565955018E-02
C18  7.867306340076E-02 -3.561639759356E-01  6.632565955018E-02
C19  5.969667249078E-02  2.540261803308E-01 -3.025789784877E-02
C20 -5.969667249078E-02 -2.540261803308E-01  3.025789784877E-02
C21  2.348956530737E-01  2.113387383896E-01 -7.323344374040E-02
C22 -2.348956530737E-01 -2.113387383896E-01  7.323344374040E-02
C23  3.690667369809E-01  1.084332133543E-01 -3.759398285815E-02
C24 -3.690667369809E-01 -1.084332133543E-01  3.759398285815E-02
C25  4.004916633875E-01 -1.349557538044E-01  1.611639611771E-01
C26 -4.004916633875E-01  1.349557538044E-01 -1.611639611771E-01
C27  3.477582398612E-01 -2.031728632933E-01  2.270644750751E-01
C28 -3.477582398612E-01  2.031728632933E-01 -2.270644750751E-01
C29  3.349774122810E-01  4.506044953884E-01  3.151245889089E-01
C30 -3.349774122810E-01 -4.506044953884E-01 -3.151245889089E-01
C31  2.425845245461E-01  3.478718934389E-01  2.487985232211E-01
C32 -2.425845245461E-01 -3.478718934389E-01 -2.487985232211E-01
C33 -4.510658728524E-01  4.327431626170E-01  2.970757863127E-01
C34  4.510658728524E-01 -4.327431626170E-01 -2.970757863127E-01
C35  3.503283210802E-01 -1.916626315522E-01  4.140863052343E-01
C36 -3.503283210802E-01  1.916626315522E-01 -4.140863052343E-01
C37  3.273450300887E-01 -2.837803066727E-01  4.977046068262E-01
C38 -3.273450300887E-01  2.837803066727E-01 -4.977046068262E-01
C39  2.767463910607E-01 -2.189605617634E-03  4.244955233448E-01
C40 -2.767463910607E-01  2.189605617634E-03 -4.244955233448E-01
C41 -1.704104852826E-02 -2.935700523948E-01  3.296374677307E-01
C42  1.704104852826E-02  2.935700523948E-01 -3.296374677307E-01
C43 -1.004850869179E-01 -3.357075580177E-01  4.186323015430E-01
C44  1.004850869179E-01  3.357075580177E-01 -4.186323015430E-01
C45 -9.947349218155E-02 -1.229228970792E-01  3.001493643952E-01
C46  9.947349218155E-02  1.229228970792E-01 -3.001493643952E-01
H47  1.111783588720E-01  4.469643925418E-02  1.520989035963E-01
H48 -1.111783588720E-01 -4.469643925418E-02 -1.520989035963E-01
H49 -2.002113950115E-01  1.920246667000E-01  1.610226890534E-01
H50  2.002113950115E-01 -1.920246667000E-01 -1.610226890534E-01
H51 -4.308714263588E-01  3.695958793463E-01  9.509990880838E-02
H52  4.308714263588E-01 -3.695958793463E-01 -9.509990880838E-02
H53 -3.530935690694E-01  4.736506074287E-01 -5.045906586132E-02
H54  3.530935690694E-01 -4.736506074287E-01  5.045906586132E-02
H55 -4.476699041440E-02  4.016530262518E-01 -1.297421559097E-01
H56  4.476699041440E-02 -4.016530262518E-01  1.297421559097E-01
H57  2.705948485392E-01  2.579163901151E-01 -1.363761317583E-01
H58 -2.705948485392E-01 -2.579163901151E-01  1.363761317583E-01
H59  2.927474155366E-01  3.969318852815E-01  3.773184067319E-01
H60 -2.927474155366E-01 -3.969318852815E-01 -3.773184067319E-01
H61  2.651417632352E-01  4.067913414506E-01  1.869591878189E-01
H62 -2.651417632352E-01 -4.067913414506E-01 -1.869591878189E-01
H63  9.057774730342E-02  3.402750764800E-01  2.651700227003E-01
H64 -9.057774730342E-02 -3.402750764800E-01 -2.651700227003E-01
H65  3.022379697428E-01  2.136885095880E-01  2.407009317960E-01
H66 -3.022379697428E-01 -2.136885095880E-01 -2.407009317960E-01
H67 -4.030243530628E-01  2.947458082326E-01  2.934081958915E-01
H68  4.030243530628E-01 -2.947458082326E-01 -2.934081958915E-01
H69 -3.810690177247E-01  4.975172747060E-01  3.460294426873E-01
H70  3.810690177247E-01 -4.975172747060E-01 -3.460294426873E-01
H71 -4.021583817660E-01  4.896714304954E-01  2.367387212755E-01
H72  4.021583817660E-01 -4.896714304954E-01 -2.367387212755E-01
H73 -4.984702167538E-01 -1.909075206948E-01  3.920336053922E-01
H74  4.984702167538E-01  1.909075206948E-01 -3.920336053922E-01
H75  4.098529925261E-01 -2.225325909119E-01 -4.565862208848E-01
H76 -4.098529925261E-01  2.225325909119E-01  4.565862208848E-01
H77  3.725435722896E-01 -4.217814779835E-01  4.903810798205E-01
H78 -3.725435722896E-01  4.217814779835E-01 -4.903810798205E-01
H79  1.809996648463E-01 -2.772615716943E-01 -4.735832719303E-01
H80 -1.809996648463E-01  2.772615716943E-01  4.735832719303E-01
H81  1.244809586826E-01  5.914287538200E-03  4.429095683994E-01
H82 -1.244809586826E-01 -5.914287538200E-03 -4.429095683994E-01
H83  3.048007291899E-01  6.761259582066E-02  3.658926509213E-01
H84 -3.048007291899E-01 -6.761259582066E-02 -3.658926509213E-01
H85  3.416362129493E-01  6.695464649553E-02  4.740651207666E-01
H86 -3.416362129493E-01 -6.695464649553E-02 -4.740651207666E-01
H87 -5.194883411394E-02 -3.984540727808E-01  2.862567867746E-01
H88  5.194883411394E-02  3.984540727808E-01 -2.862567867746E-01
H89 -4.754443672265E-02 -4.627090795965E-01  4.373553896910E-01
H90  4.754443672265E-02  4.627090795965E-01 -4.373553896910E-01
H91 -2.540960228472E-01 -3.387626217715E-01  4.239134839905E-01
H92  2.540960228472E-01  3.387626217715E-01 -4.239134839905E-01
H93 -6.688048047841E-02 -2.372488286951E-01  4.649156173345E-01
H94  6.688048047841E-02  2.372488286951E-01 -4.649156173345E-01
H95 -4.053861235073E-02 -9.867212529896E-02  2.355321742224E-01
H96  4.053861235073E-02  9.867212529896E-02 -2.355321742224E-01
H97 -7.212061495448E-02 -1.061961047455E-02  3.403114374697E-01
H98  7.212061495448E-02  1.061961047455E-02 -3.403114374697E-01
H99 -2.523971810345E-01 -1.282836156827E-01  3.003435830510E-01
H100  2.523971810345E-01  1.282836156827E-01 -3.003435830510E-01


#===END

data_OPT_STEP_92

_symmetry_space_group_name_H-M 'P 1'
_cell_length_a      7.16149277
_cell_length_b      7.66433737
_cell_length_c     15.94560663
_cell_angle_alpha   91.781650
_cell_angle_beta   83.398487
_cell_angle_gamma   87.759384

loop_
_atom_site_label
_atom_site_fract_x
_atom_site_fract_y
_atom_site_fract_z
SI1  2.507490625658E-01 -3.098795776705E-01  3.233236132654E-01
SI2 -2.507490625658E-01  3.098795776705E-01 -3.233236132654E-01
C3  4.528155701932E-01 -6.354615785160E-02  8.187298263047E-02
C4 -4.528155701932E-01  6.354615785160E-02 -8.187298263047E-02
C5  3.223324666726E-01  4.513131821053E-02  4.585925418669E-02
C6 -3.223324666726E-01 -4.513131821053E-02 -4.585925418669E-02
C7  1.453318446977E-01  9.176346805187E-02  8.913585129425E-02
C8 -1.453318446977E-01 -9.176346805187E-02 -8.913585129425E-02
C9  1.469876793904E-02  1.944095019176E-01  5.394433751657E-02
C10 -1.469876793904E-02 -1.944095019176E-01 -5.394433751657E-02
C11 -1.656814557249E-01  2.403951485238E-01  9.814496823358E-02
C12  1.656814557249E-01 -2.403951485238E-01 -9.814496823357E-02
C13 -2.930110734932E-01  3.384662678965E-01  6.133562831218E-02
C14  2.930110734932E-01 -3.384662678965E-01 -6.133562831218E-02
C15 -2.487413973434E-01  3.966305421408E-01 -2.206877762653E-02
C16  2.487413973434E-01 -3.966305421408E-01  2.206877762653E-02
C17 -7.869667388774E-02  3.561552680315E-01 -6.632983135838E-02
C18  7.869667388774E-02 -3.561552680315E-01  6.632983135838E-02
C19  5.968047190109E-02  2.540167728978E-01 -3.026126907161E-02
C20 -5.968047190109E-02 -2.540167728978E-01  3.026126907161E-02
C21  2.348745303718E-01  2.113246217849E-01 -7.323795057812E-02
C22 -2.348745303718E-01 -2.113246217849E-01  7.323795057812E-02
C23  3.690588326518E-01  1.084281506566E-01 -3.759548171784E-02
C24 -3.690588326518E-01 -1.084281506566E-01  3.759548171784E-02
C25  4.005291888027E-01 -1.349328704801E-01  1.611752020824E-01
C26 -4.005291888027E-01  1.349328704801E-01 -1.611752020824E-01
C27  3.478036209577E-01 -2.031175127965E-01  2.270852709507E-01
C28 -3.478036209577E-01  2.031175127965E-01 -2.270852709507E-01
C29  3.350138312997E-01  4.506322856907E-01  3.151295373679E-01
C30 -3.350138312997E-01 -4.506322856907E-01 -3.151295373679E-01
C31  2.426063728562E-01  3.478879023298E-01  2.488078828417E-01
C32 -2.426063728562E-01 -3.478879023298E-01 -2.488078828417E-01
C33 -4.510422478289E-01  4.327418753838E-01  2.970726415744E-01
C34  4.510422478289E-01 -4.327418753838E-01 -2.970726415744E-01
C35  3.503666073482E-01 -1.916514162748E-01  4.141149898146E-01
C36 -3.503666073482E-01  1.916514162748E-01 -4.141149898146E-01
C37  3.273090820070E-01 -2.837510936429E-01  4.977362886915E-01
C38 -3.273090820070E-01  2.837510936429E-01 -4.977362886915E-01
C39  2.768474204860E-01 -2.147979379566E-03  4.245251643905E-01
C40 -2.768474204860E-01  2.147979379566E-03 -4.245251643905E-01
C41 -1.699072720133E-02 -2.935188227901E-01  3.296533328811E-01
C42  1.699072720133E-02  2.935188227901E-01 -3.296533328811E-01
C43 -1.004189696023E-01 -3.357924385891E-01  4.186293424952E-01
C44  1.004189696023E-01  3.357924385891E-01 -4.186293424952E-01
C45 -9.947663835188E-02 -1.228380502644E-01  3.002366305044E-01
C46  9.947663835188E-02  1.228380502644E-01 -3.002366305044E-01
H47  1.112016029225E-01  4.470416747114E-02  1.521023689380E-01
H48 -1.112016029225E-01 -4.470416747114E-02 -1.521023689380E-01
H49 -2.001802002964E-01  1.920631308320E-01  1.610340539237E-01
H50  2.001802002964E-01 -1.920631308320E-01 -1.610340539237E-01
H51 -4.308478634049E-01  3.696440591595E-01  9.511075454363E-02
H52  4.308478634049E-01 -3.696440591595E-01 -9.511075454363E-02
H53 -3.531028587284E-01  4.736790708719E-01 -5.045690560726E-02
H54  3.531028587284E-01 -4.736790708719E-01  5.045690560726E-02
H55 -4.480318653786E-02  4.016313371403E-01 -1.297509976516E-01
H56  4.480318653786E-02 -4.016313371403E-01  1.297509976516E-01
H57  2.705589196635E-01  2.578901780728E-01 -1.363855547145E-01
H58 -2.705589196635E-01 -2.578901780728E-01  1.363855547145E-01
H59  2.928043525793E-01  3.969697946713E-01  3.773280173217E-01
H60 -2.928043525793E-01 -3.969697946713E-01 -3.773280173217E-01
H61  2.651516624940E-01  4.067884936779E-01  1.869628360886E-01
H62 -2.651516624940E-01 -4.067884936779E-01 -1.869628360886E-01
H63  9.060641760020E-02  3.403094735728E-01  2.651831859199E-01
H64 -9.060641760020E-02 -3.403094735728E-01 -2.651831859199E-01
H65  3.022565857458E-01  2.136907723398E-01  2.407163708979E-01
H66 -3.022565857458E-01 -2.136907723398E-01 -2.407163708979E-01
H67 -4.029988501029E-01  2.947333931920E-01  2.934051228556E-01
H68  4.029988501029E-01 -2.947333931920E-01 -2.934051228556E-01
H69 -3.810388645469E-01  4.975200665020E-01  3.460250135385E-01
H70  3.810388645469E-01 -4.975200665020E-01 -3.460250135385E-01
H71 -4.021491916682E-01  4.896603129260E-01  2.367323960545E-01
H72  4.021491916682E-01 -4.896603129260E-01 -2.367323960545E-01
H73 -4.984365585399E-01 -1.909643558619E-01  3.920717632342E-01
H74  4.984365585399E-01  1.909643558619E-01 -3.920717632342E-01
H75  4.098226146527E-01 -2.225497892031E-01 -4.565439055157E-01
H76 -4.098226146527E-01  2.225497892031E-01  4.565439055157E-01
H77  3.724280905493E-01 -4.217805345750E-01  4.904162166147E-01
H78 -3.724280905493E-01  4.217805345750E-01 -4.904162166147E-01
H79  1.809666560426E-01 -2.771444396681E-01 -4.735620728672E-01
H80 -1.809666560426E-01  2.771444396681E-01  4.735620728672E-01
H81  1.245876356447E-01  6.011937338639E-03  4.429264778606E-01
H82 -1.245876356447E-01 -6.011937338639E-03 -4.429264778606E-01
H83  3.049571896239E-01  6.765566249032E-02  3.659231045187E-01
H84 -3.049571896239E-01 -6.765566249032E-02 -3.659231045187E-01
H85  3.417283413416E-01  6.695421937426E-02  4.741090180599E-01
H86 -3.417283413416E-01 -6.695421937426E-02 -4.741090180599E-01
H87 -5.187266756844E-02 -3.983353887525E-01  2.862338403193E-01
H88  5.187266756844E-02  3.983353887525E-01 -2.862338403193E-01
H89 -4.745833680021E-02 -4.628298514010E-01  4.373150159266E-01
H90  4.745833680021E-02  4.628298514010E-01 -4.373150159266E-01
H91 -2.540167418375E-01 -3.388461743454E-01  4.238948827414E-01
H92  2.540167418375E-01  3.388461743454E-01 -4.238948827414E-01
H93 -6.685324067753E-02 -2.373863362856E-01  4.649517490339E-01
H94  6.685324067753E-02  2.373863362856E-01 -4.649517490339E-01
H95 -4.058719338979E-02 -9.848466276752E-02  2.356199778043E-01
H96  4.058719338979E-02  9.848466276752E-02 -2.356199778043E-01
H97 -7.210877232395E-02 -1.059535498539E-02  3.404397229723E-01
H98  7.210877232395E-02  1.059535498539E-02 -3.404397229723E-01
H99 -2.524242373915E-01 -1.282231287088E-01  3.004555583086E-01
H100  2.524242373915E-01  1.282231287088E-01 -3.004555583086E-01


#===END

data_OPT_STEP_93

_symmetry_space_group_name_H-M 'P 1'
_cell_length_a      7.16156719
_cell_length_b      7.66429037
_cell_length_c     15.94547112
_cell_angle_alpha   91.781672
_cell_angle_beta   83.398803
_cell_angle_gamma   87.757775

loop_
_atom_site_label
_atom_site_fract_x
_atom_site_fract_y
_atom_site_fract_z
SI1  2.507570594745E-01 -3.098658130925E-01  3.233251211111E-01
SI2 -2.507570594745E-01  3.098658130925E-01 -3.233251211111E-01
C3  4.528189509508E-01 -6.354371800038E-02  8.187304244080E-02
C4 -4.528189509508E-01  6.354371800038E-02 -8.187304244080E-02
C5  3.223334835228E-01  4.513250621419E-02  4.586012900823E-02
C6 -3.223334835228E-01 -4.513250621419E-02 -4.586012900823E-02
C7  1.453339036494E-01  9.176533686255E-02  8.913649443924E-02
C8 -1.453339036494E-01 -9.176533686255E-02 -8.913649443924E-02
C9  1.469791848183E-02  1.944083631417E-01  5.394354244312E-02
C10 -1.469791848183E-02 -1.944083631417E-01 -5.394354244312E-02
C11 -1.656791957360E-01  2.404005447291E-01  9.814538464033E-02
C12  1.656791957360E-01 -2.404005447291E-01 -9.814538464033E-02
C13 -2.930080744717E-01  3.384776827749E-01  6.133667163622E-02
C14  2.930080744717E-01 -3.384776827749E-01 -6.133667163622E-02
C15 -2.487441488638E-01  3.966369020007E-01 -2.206918701665E-02
C16  2.487441488638E-01 -3.966369020007E-01  2.206918701665E-02
C17 -7.870239965894E-02  3.561519069381E-01 -6.633105052895E-02
C18  7.870239965894E-02 -3.561519069381E-01  6.633105052895E-02
C19  5.967577658058E-02  2.540128948887E-01 -3.026188926550E-02
C20 -5.967577658058E-02 -2.540128948887E-01  3.026188926550E-02
C21  2.348705911154E-01  2.113216409355E-01 -7.323786506348E-02
C22 -2.348705911154E-01 -2.113216409355E-01  7.323786506348E-02
C23  3.690583033736E-01  1.084275608112E-01 -3.759483336162E-02
C24 -3.690583033736E-01 -1.084275608112E-01  3.759483336162E-02
C25  4.005413152325E-01 -1.349266108179E-01  1.611778568292E-01
C26 -4.005413152325E-01  1.349266108179E-01 -1.611778568292E-01
C27  3.478147500935E-01 -2.031011715261E-01  2.270904207817E-01
C28 -3.478147500935E-01  2.031011715261E-01 -2.270904207817E-01
C29  3.350199111949E-01  4.506415250202E-01  3.151297128043E-01
C30 -3.350199111949E-01 -4.506415250202E-01 -3.151297128043E-01
C31  2.426108699879E-01  3.478898343206E-01  2.488094262741E-01
C32 -2.426108699879E-01 -3.478898343206E-01 -2.488094262741E-01
C33 -4.510385095931E-01  4.327423543049E-01  2.970730016805E-01
C34  4.510385095931E-01 -4.327423543049E-01 -2.970730016805E-01
C35  3.503750982563E-01 -1.916465834596E-01  4.141194722547E-01
C36 -3.503750982563E-01  1.916465834596E-01 -4.141194722547E-01
C37  3.272965961101E-01 -2.837385185492E-01  4.977415719969E-01
C38 -3.272965961101E-01  2.837385185492E-01 -4.977415719969E-01
C39  2.768726309357E-01 -2.135752018156E-03  4.245287632809E-01
C40 -2.768726309357E-01  2.135752018156E-03 -4.245287632809E-01
C41 -1.698290414496E-02 -2.935087693620E-01  3.296569533162E-01
C42  1.698290414496E-02  2.935087693620E-01 -3.296569533162E-01
C43 -1.004059781164E-01 -3.358183632622E-01  4.186281943570E-01
C44  1.004059781164E-01  3.358183632622E-01 -4.186281943570E-01
C45 -9.949155466277E-02 -1.228286171877E-01  3.002587709643E-01
C46  9.949155466277E-02  1.228286171877E-01 -3.002587709643E-01
H47  1.112064276096E-01  4.470514059097E-02  1.521025787394E-01
H48 -1.112064276096E-01 -4.470514059097E-02 -1.521025787394E-01
H49 -2.001738578699E-01  1.920781410812E-01  1.610370482643E-01
H50  2.001738578699E-01 -1.920781410812E-01 -1.610370482643E-01
H51 -4.308387807161E-01  3.696659497991E-01  9.511373033154E-02
H52  4.308387807161E-01 -3.696659497991E-01 -9.511373033154E-02
H53 -3.531000107557E-01  4.736943763875E-01 -5.045758265072E-02
H54  3.531000107557E-01 -4.736943763875E-01  5.045758265072E-02
H55 -4.481021704293E-02  4.016221846126E-01 -1.297538294881E-01
H56  4.481021704293E-02 -4.016221846126E-01  1.297538294881E-01
H57  2.705515104105E-01  2.578843882662E-01 -1.363866925198E-01
H58 -2.705515104105E-01 -2.578843882662E-01  1.363866925198E-01
H59  2.928136448715E-01  3.969830723244E-01  3.773292019558E-01
H60 -2.928136448715E-01 -3.969830723244E-01 -3.773292019558E-01
H61  2.651504158447E-01  4.067856247590E-01  1.869631910221E-01
H62 -2.651504158447E-01 -4.067856247590E-01 -1.869631910221E-01
H63  9.061158249801E-02  3.403094541060E-01  2.651847507579E-01
H64 -9.061158249801E-02 -3.403094541060E-01 -2.651847507579E-01
H65  3.022670187767E-01  2.136915563008E-01  2.407205148050E-01
H66 -3.022670187767E-01 -2.136915563008E-01 -2.407205148050E-01
H67 -4.029936914921E-01  2.947312360452E-01  2.934087391683E-01
H68  4.029936914921E-01 -2.947312360452E-01 -2.934087391683E-01
H69 -3.810349836312E-01  4.975266337715E-01  3.460243099747E-01
H70  3.810349836312E-01 -4.975266337715E-01 -3.460243099747E-01
H71 -4.021466045411E-01  4.896538487532E-01  2.367316685249E-01
H72  4.021466045411E-01 -4.896538487532E-01 -2.367316685249E-01
H73 -4.984292682838E-01 -1.909780813756E-01  3.920784315392E-01
H74  4.984292682838E-01  1.909780813756E-01 -3.920784315392E-01
H75  4.098119845970E-01 -2.225501657600E-01 -4.565359998133E-01
H76 -4.098119845970E-01  2.225501657600E-01  4.565359998133E-01
H77  3.723923831663E-01 -4.217752342407E-01  4.904235500807E-01
H78 -3.723923831663E-01  4.217752342407E-01 -4.904235500807E-01
H79  1.809544842090E-01 -2.771075035925E-01 -4.735603535218E-01
H80 -1.809544842090E-01  2.771075035925E-01  4.735603535218E-01
H81  1.246140239795E-01  6.038176875538E-03  4.429271978638E-01
H82 -1.246140239795E-01 -6.038176875538E-03 -4.429271978638E-01
H83  3.049983194316E-01  6.766815040788E-02  3.659266874495E-01
H84 -3.049983194316E-01 -6.766815040788E-02 -3.659266874495E-01
H85  3.417528108842E-01  6.695393702231E-02  4.741154801111E-01
H86 -3.417528108842E-01 -6.695393702231E-02 -4.741154801111E-01
H87 -5.185662714850E-02 -3.983084377119E-01  2.862292141779E-01
H88  5.185662714850E-02  3.983084377119E-01 -2.862292141779E-01
H89 -4.744270220577E-02 -4.628655096312E-01  4.373049745652E-01
H90  4.744270220577E-02  4.628655096312E-01 -4.373049745652E-01
H91 -2.540006041384E-01 -3.388709030122E-01  4.238875974722E-01
H92  2.540006041384E-01  3.388709030122E-01 -4.238875974722E-01
H93 -6.685154257628E-02 -2.374263502403E-01  4.649612641670E-01
H94  6.685154257628E-02  2.374263502403E-01 -4.649612641670E-01
H95 -4.063591458866E-02 -9.845827569565E-02  2.356367958763E-01
H96  4.063591458866E-02  9.845827569565E-02 -2.356367958763E-01
H97 -7.209853670991E-02 -1.059794467631E-02  3.404650486511E-01
H98  7.209853670991E-02  1.059794467631E-02 -3.404650486511E-01
H99 -2.524553101018E-01 -1.282252000604E-01  3.004990366248E-01
H100  2.524553101018E-01  1.282252000604E-01 -3.004990366248E-01


#===END

data_OPT_STEP_94

_symmetry_space_group_name_H-M 'P 1'
_cell_length_a      7.16157796
_cell_length_b      7.66428167
_cell_length_c     15.94544480
_cell_angle_alpha   91.781590
_cell_angle_beta   83.398881
_cell_angle_gamma   87.757493

loop_
_atom_site_label
_atom_site_fract_x
_atom_site_fract_y
_atom_site_fract_z
SI1  2.507598236237E-01 -3.098617539680E-01  3.233247390195E-01
SI2 -2.507598236237E-01  3.098617539680E-01 -3.233247390195E-01
C3  4.528198742925E-01 -6.354266132072E-02  8.187273491485E-02
C4 -4.528198742925E-01  6.354266132072E-02 -8.187273491485E-02
C5  3.223337082081E-01  4.513310597485E-02  4.586069444983E-02
C6 -3.223337082081E-01 -4.513310597485E-02 -4.586069444983E-02
C7  1.453342488755E-01  9.176558399006E-02  8.913674164437E-02
C8 -1.453342488755E-01 -9.176558399006E-02 -8.913674164437E-02
C9  1.469711154644E-02  1.944064337259E-01  5.394305842393E-02
C10 -1.469711154644E-02 -1.944064337259E-01 -5.394305842393E-02
C11 -1.656791414709E-01  2.404009751333E-01  9.814525070805E-02
C12  1.656791414709E-01 -2.404009751333E-01 -9.814525070805E-02
C13 -2.930070588875E-01  3.384812784647E-01  6.133694663494E-02
C14  2.930070588875E-01 -3.384812784647E-01 -6.133694663494E-02
C15 -2.487450540525E-01  3.966390821770E-01 -2.206929239024E-02
C16  2.487450540525E-01 -3.966390821770E-01  2.206929239024E-02
C17 -7.870405112779E-02  3.561499013192E-01 -6.633122110685E-02
C18  7.870405112779E-02 -3.561499013192E-01  6.633122110685E-02
C19  5.967428682347E-02  2.540107960969E-01 -3.026179574779E-02
C20 -5.967428682347E-02 -2.540107960969E-01  3.026179574779E-02
C21  2.348703591111E-01  2.113210163331E-01 -7.323718566919E-02
C22 -2.348703591111E-01 -2.113210163331E-01  7.323718566919E-02
C23  3.690589460767E-01  1.084277609722E-01 -3.759409675860E-02
C24 -3.690589460767E-01 -1.084277609722E-01  3.759409675860E-02
C25  4.005465247179E-01 -1.349251127775E-01  1.611785068912E-01
C26 -4.005465247179E-01  1.349251127775E-01 -1.611785068912E-01
C27  3.478187953962E-01 -2.030970601141E-01  2.270916116167E-01
C28 -3.478187953962E-01  2.030970601141E-01 -2.270916116167E-01
C29  3.350206102661E-01  4.506441651743E-01  3.151292669774E-01
C30 -3.350206102661E-01 -4.506441651743E-01 -3.151292669774E-01
C31  2.426111171091E-01  3.478893479032E-01  2.488093859075E-01
C32 -2.426111171091E-01 -3.478893479032E-01 -2.488093859075E-01
C33 -4.510379780344E-01  4.327421499959E-01  2.970731479617E-01
C34  4.510379780344E-01 -4.327421499959E-01 -2.970731479617E-01
C35  3.503780389037E-01 -1.916449951835E-01  4.141197119207E-01
C36 -3.503780389037E-01  1.916449951835E-01 -4.141197119207E-01
C37  3.272952970986E-01 -2.837352385800E-01  4.977417367070E-01
C38 -3.272952970986E-01  2.837352385800E-01 -4.977417367070E-01
C39  2.768771682264E-01 -2.133152542959E-03  4.245292610964E-01
C40 -2.768771682264E-01  2.133152542959E-03 -4.245292610964E-01
C41 -1.698085079792E-02 -2.935051172274E-01  3.296575427928E-01
C42  1.698085079792E-02  2.935051172274E-01 -3.296575427928E-01
C43 -1.004032154132E-01 -3.358236441337E-01  4.186278886436E-01
C44  1.004032154132E-01  3.358236441337E-01 -4.186278886436E-01
C45 -9.949638572388E-02 -1.228285643875E-01  3.002633264824E-01
C46  9.949638572388E-02  1.228285643875E-01 -3.002633264824E-01
H47  1.112072662885E-01  4.470439263855E-02  1.521023830824E-01
H48 -1.112072662885E-01 -4.470439263855E-02 -1.521023830824E-01
H49 -2.001726955129E-01  1.920829091681E-01  1.610380422858E-01
H50  2.001726955129E-01 -1.920829091681E-01 -1.610380422858E-01
H51 -4.308349439039E-01  3.696739084274E-01  9.511481773785E-02
H52  4.308349439039E-01 -3.696739084274E-01 -9.511481773785E-02
H53 -3.530972443265E-01  4.737013139832E-01 -5.045796201233E-02
H54  3.530972443265E-01 -4.737013139832E-01  5.045796201233E-02
H55 -4.481128380952E-02  4.016179441268E-01 -1.297545780175E-01
H56  4.481128380952E-02 -4.016179441268E-01  1.297545780175E-01
H57  2.705504467155E-01  2.578828569345E-01 -1.363864847826E-01
H58 -2.705504467155E-01 -2.578828569345E-01  1.363864847826E-01
H59  2.928147444799E-01  3.969871038279E-01  3.773288983403E-01
H60 -2.928147444799E-01 -3.969871038279E-01 -3.773288983403E-01
H61  2.651484166090E-01  4.067842235639E-01  1.869630649577E-01
H62 -2.651484166090E-01 -4.067842235639E-01 -1.869630649577E-01
H63  9.061144496345E-02  3.403067609494E-01  2.651844167638E-01
H64 -9.061144496345E-02 -3.403067609494E-01 -2.651844167638E-01
H65  3.022709872677E-01  2.136913971259E-01  2.407213371924E-01
H66 -3.022709872677E-01 -2.136913971259E-01 -2.407213371924E-01
H67 -4.029919090233E-01  2.947304650388E-01  2.934100968188E-01
H68  4.029919090233E-01 -2.947304650388E-01 -2.934100968188E-01
H69 -3.810345168536E-01  4.975292008895E-01  3.460240520107E-01
H70  3.810345168536E-01 -4.975292008895E-01 -3.460240520107E-01
H71 -4.021460600501E-01  4.896516973133E-01  2.367318353573E-01
H72  4.021460600501E-01 -4.896516973133E-01 -2.367318353573E-01
H73 -4.984270574276E-01 -1.909796488173E-01  3.920787744759E-01
H74  4.984270574276E-01  1.909796488173E-01 -3.920787744759E-01
H75  4.098113121339E-01 -2.225506950902E-01 -4.565350840946E-01
H76 -4.098113121339E-01  2.225506950902E-01  4.565350840946E-01
H77  3.723850145552E-01 -4.217737036938E-01  4.904240547447E-01
H78 -3.723850145552E-01  4.217737036938E-01 -4.904240547447E-01
H79  1.809533680210E-01 -2.770986630140E-01 -4.735610555779E-01
H80 -1.809533680210E-01  2.770986630140E-01  4.735610555779E-01
H81  1.246187140300E-01  6.041972818733E-03  4.429275175385E-01
H82 -1.246187140300E-01 -6.041972818733E-03 -4.429275175385E-01
H83  3.050060956006E-01  6.767166423954E-02  3.659272190179E-01
H84 -3.050060956006E-01 -6.767166423954E-02 -3.659272190179E-01
H85  3.417572632841E-01  6.695287304059E-02  4.741165524182E-01
H86 -3.417572632841E-01 -6.695287304059E-02 -4.741165524182E-01
H87 -5.185185021611E-02 -3.983007436323E-01  2.862281706446E-01
H88  5.185185021611E-02  3.983007436323E-01 -2.862281706446E-01
H89 -4.744116055538E-02 -4.628741158851E-01  4.373023829401E-01
H90  4.744116055538E-02  4.628741158851E-01 -4.373023829401E-01
H91 -2.539971610005E-01 -3.388757459312E-01  4.238848429647E-01
H92  2.539971610005E-01  3.388757459312E-01 -4.238848429647E-01
H93 -6.685153082376E-02 -2.374359306517E-01  4.649644057673E-01
H94  6.685153082376E-02  2.374359306517E-01 -4.649644057673E-01
H95 -4.065188937404E-02 -9.845710447368E-02  2.356388953291E-01
H96  4.065188937404E-02  9.845710447368E-02 -2.356388953291E-01
H97 -7.209350170739E-02 -1.059974558495E-02  3.404686690561E-01
H98  7.209350170739E-02  1.059974558495E-02 -3.404686690561E-01
H99 -2.524668023523E-01 -1.282308085412E-01  3.005119820292E-01
H100  2.524668023523E-01  1.282308085412E-01 -3.005119820292E-01


#===END

data_OPT_STEP_95

_symmetry_space_group_name_H-M 'P 1'
_cell_length_a      7.16157977
_cell_length_b      7.66427931
_cell_length_c     15.94543786
_cell_angle_alpha   91.781561
_cell_angle_beta   83.398891
_cell_angle_gamma   87.757448

loop_
_atom_site_label
_atom_site_fract_x
_atom_site_fract_y
_atom_site_fract_z
SI1  2.507607625366E-01 -3.098603646570E-01  3.233243857634E-01
SI2 -2.507607625366E-01  3.098603646570E-01 -3.233243857634E-01
C3  4.528199210954E-01 -6.354213030546E-02  8.187248806450E-02
C4 -4.528199210954E-01  6.354213030546E-02 -8.187248806450E-02
C5  3.223337417229E-01  4.513338363265E-02  4.586091432747E-02
C6 -3.223337417230E-01 -4.513338363265E-02 -4.586091432747E-02
C7  1.453344336757E-01  9.176589799500E-02  8.913675581077E-02
C8 -1.453344336757E-01 -9.176589799500E-02 -8.913675581077E-02
C9  1.469680915489E-02  1.944053680518E-01  5.394271428881E-02
C10 -1.469680915489E-02 -1.944053680518E-01 -5.394271428881E-02
C11 -1.656791750350E-01  2.404004182262E-01  9.814505032013E-02
C12  1.656791750350E-01 -2.404004182262E-01 -9.814505032013E-02
C13 -2.930067580711E-01  3.384818789254E-01  6.133696411012E-02
C14  2.930067580711E-01 -3.384818789254E-01 -6.133696411012E-02
C15 -2.487457890254E-01  3.966395096294E-01 -2.206929922529E-02
C16  2.487457890254E-01 -3.966395096294E-01  2.206929922529E-02
C17 -7.870478613076E-02  3.561490047615E-01 -6.633111812283E-02
C18  7.870478613076E-02 -3.561490047615E-01  6.633111812283E-02
C19  5.967382366904E-02  2.540100314976E-01 -3.026161954155E-02
C20 -5.967382366904E-02 -2.540100314976E-01  3.026161954155E-02
C21  2.348707600547E-01  2.113209765264E-01 -7.323674224571E-02
C22 -2.348707600547E-01 -2.113209765264E-01  7.323674224571E-02
C23  3.690596546614E-01  1.084278847592E-01 -3.759372996889E-02
C24 -3.690596546614E-01 -1.084278847592E-01  3.759372996889E-02
C25  4.005486988189E-01 -1.349250661857E-01  1.611786914998E-01
C26 -4.005486988189E-01  1.349250661857E-01 -1.611786914998E-01
C27  3.478200380198E-01 -2.030961758862E-01  2.270919254534E-01
C28 -3.478200380198E-01  2.030961758862E-01 -2.270919254534E-01
C29  3.350205767596E-01  4.506449104326E-01  3.151290860831E-01
C30 -3.350205767596E-01 -4.506449104326E-01 -3.151290860831E-01
C31  2.426107989601E-01  3.478889368195E-01  2.488092825523E-01
C32 -2.426107989601E-01 -3.478889368195E-01 -2.488092825523E-01
C33 -4.510378706046E-01  4.327418962698E-01  2.970731800566E-01
C34  4.510378706046E-01 -4.327418962698E-01 -2.970731800566E-01
C35  3.503788415263E-01 -1.916445042549E-01  4.141196661918E-01
C36 -3.503788415263E-01  1.916445042549E-01 -4.141196661918E-01
C37  3.272953582344E-01 -2.837343283625E-01  4.977415805079E-01
C38 -3.272953582344E-01  2.837343283625E-01 -4.977415805079E-01
C39  2.768776669065E-01 -2.132631612359E-03  4.245293711635E-01
C40 -2.768776669065E-01  2.132631612359E-03 -4.245293711635E-01
C41 -1.698047654209E-02 -2.935030757978E-01  3.296575147990E-01
C42  1.698047654209E-02  2.935030757978E-01 -3.296575147990E-01
C43 -1.004026458063E-01 -3.358239346966E-01  4.186279002584E-01
C44  1.004026458063E-01  3.358239346966E-01 -4.186279002584E-01
C45 -9.949726764154E-02 -1.228288156763E-01  3.002640056746E-01
C46  9.949726764154E-02  1.228288156763E-01 -3.002640056746E-01
H47  1.112074948159E-01  4.470417559306E-02  1.521021122179E-01
H48 -1.112074948159E-01 -4.470417559306E-02 -1.521021122179E-01
H49 -2.001722465183E-01  1.920842161950E-01  1.610383284294E-01
H50  2.001722465183E-01 -1.920842161950E-01 -1.610383284294E-01
H51 -4.308332712030E-01  3.696758787988E-01  9.511506439709E-02
H52  4.308332712030E-01 -3.696758787988E-01 -9.511506439709E-02
H53 -3.530962743713E-01  4.737037351717E-01 -5.045811930221E-02
H54  3.530962743713E-01 -4.737037351717E-01  5.045811930221E-02
H55 -4.481146321572E-02  4.016165697664E-01 -1.297546134757E-01
H56  4.481146321572E-02 -4.016165697664E-01  1.297546134757E-01
H57  2.705503849065E-01  2.578823169141E-01 -1.363863396741E-01
H58 -2.705503849065E-01 -2.578823169141E-01  1.363863396741E-01
H59  2.928149775572E-01  3.969880593507E-01  3.773286277975E-01
H60 -2.928149775572E-01 -3.969880593507E-01 -3.773286277975E-01
H61  2.651476778914E-01  4.067839623596E-01  1.869631619952E-01
H62 -2.651476778914E-01 -4.067839623596E-01 -1.869631619952E-01
H63  9.061068373830E-02  3.403059330420E-01  2.651841248693E-01
H64 -9.061068373830E-02 -3.403059330420E-01 -2.651841248693E-01
H65  3.022721580540E-01  2.136910328168E-01  2.407214655157E-01
H66 -3.022721580540E-01 -2.136910328168E-01 -2.407214655157E-01
H67 -4.029909660500E-01  2.947300583910E-01  2.934102874903E-01
H68  4.029909660500E-01 -2.947300583910E-01 -2.934102874903E-01
H69 -3.810342019033E-01  4.975299340450E-01  3.460239417783E-01
H70  3.810342019033E-01 -4.975299340450E-01 -3.460239417783E-01
H71 -4.021461975363E-01  4.896513076851E-01  2.367321579906E-01
H72  4.021461975363E-01 -4.896513076851E-01 -2.367321579906E-01
H73 -4.984268461914E-01 -1.909799391005E-01  3.920784515342E-01
H74  4.984268461914E-01  1.909799391005E-01 -3.920784515342E-01
H75  4.098113008043E-01 -2.225509571127E-01 -4.565349292352E-01
H76 -4.098113008043E-01  2.225509571127E-01  4.565349292352E-01
H77  3.723838967507E-01 -4.217732284428E-01  4.904238638708E-01
H78 -3.723838967507E-01  4.217732284428E-01 -4.904238638708E-01
H79  1.809535250590E-01 -2.770969741815E-01 -4.735614049299E-01
H80 -1.809535250590E-01  2.770969741815E-01  4.735614049299E-01
H81  1.246190898529E-01  6.042296739848E-03  4.429277236579E-01
H82 -1.246190898529E-01 -6.042296739848E-03 -4.429277236579E-01
H83  3.050076081495E-01  6.767239598722E-02  3.659272546880E-01
H84 -3.050076081495E-01 -6.767239598722E-02 -3.659272546880E-01
H85  3.417578091621E-01  6.695200968397E-02  4.741166960618E-01
H86 -3.417578091621E-01 -6.695200968397E-02 -4.741166960618E-01
H87 -5.185052524853E-02 -3.982980983157E-01  2.862279210008E-01
H88  5.185052524853E-02  3.982980983157E-01 -2.862279210008E-01
H89 -4.744137849666E-02 -4.628758126221E-01  4.373017282341E-01
H90  4.744137849666E-02  4.628758126221E-01 -4.373017282341E-01
H91 -2.539964614107E-01 -3.388764888484E-01  4.238839780103E-01
H92  2.539964614107E-01  3.388764888484E-01 -4.238839780103E-01
H93 -6.685137024064E-02 -2.374375131264E-01  4.649657348816E-01
H94  6.685137024064E-02  2.374375131264E-01 -4.649657348816E-01
H95 -4.065390126793E-02 -9.845782438032E-02  2.356390211073E-01
H96  4.065390126793E-02  9.845782438032E-02 -2.356390211073E-01
H97 -7.209225225661E-02 -1.060063253816E-02  3.404690775951E-01
H98  7.209225225661E-02  1.060063253816E-02 -3.404690775951E-01
H99 -2.524701465064E-01 -1.282333656111E-01  3.005149279549E-01
H100  2.524701465064E-01  1.282333656111E-01 -3.005149279549E-01


#===END

data_OPT_STEP_96

_symmetry_space_group_name_H-M 'P 1'
_cell_length_a      7.16158010
_cell_length_b      7.66427874
_cell_length_c     15.94543627
_cell_angle_alpha   91.781555
_cell_angle_beta   83.398891
_cell_angle_gamma   87.757442

loop_
_atom_site_label
_atom_site_fract_x
_atom_site_fract_y
_atom_site_fract_z
SI1  2.507610341091E-01 -3.098599365562E-01  3.233242246460E-01
SI2 -2.507610341091E-01  3.098599365562E-01 -3.233242246460E-01
C3  4.528197819575E-01 -6.354187789058E-02  8.187235027925E-02
C4 -4.528197819575E-01  6.354187789058E-02 -8.187235027925E-02
C5  3.223336842269E-01  4.513341833972E-02  4.586094806059E-02
C6 -3.223336842269E-01 -4.513341833972E-02 -4.586094806059E-02
C7  1.453345172450E-01  9.176610143218E-02  8.913673237780E-02
C8 -1.453345172450E-01 -9.176610143218E-02 -8.913673237780E-02
C9  1.469676621157E-02  1.944050916767E-01  5.394256522258E-02
C10 -1.469676621157E-02 -1.944050916767E-01 -5.394256522258E-02
C11 -1.656791500283E-01  2.404001854571E-01  9.814497681633E-02
C12  1.656791500283E-01 -2.404001854571E-01 -9.814497681633E-02
C13 -2.930066832018E-01  3.384819463540E-01  6.133696409303E-02
C14  2.930066832018E-01 -3.384819463540E-01 -6.133696409303E-02
C15 -2.487461430304E-01  3.966395966359E-01 -2.206926890709E-02
C16  2.487461430304E-01 -3.966395966359E-01  2.206926890709E-02
C17 -7.870506507549E-02  3.561487611265E-01 -6.633103707138E-02
C18  7.870506507549E-02 -3.561487611265E-01  6.633103707138E-02
C19  5.967369772704E-02  2.540098760263E-01 -3.026150718554E-02
C20 -5.967369772704E-02 -2.540098760263E-01  3.026150718554E-02
C21  2.348709742423E-01  2.113209453790E-01 -7.323658358461E-02
C22 -2.348709742423E-01 -2.113209453790E-01  7.323658358461E-02
C23  3.690600033507E-01  1.084278183911E-01 -3.759364220902E-02
C24 -3.690600033507E-01 -1.084278183911E-01  3.759364220902E-02
C25  4.005493583293E-01 -1.349252249918E-01  1.611787554169E-01
C26 -4.005493583293E-01  1.349252249918E-01 -1.611787554169E-01
C27  3.478201711221E-01 -2.030960497148E-01  2.270920247036E-01
C28 -3.478201711221E-01  2.030960497148E-01 -2.270920247036E-01
C29  3.350205398488E-01  4.506451181018E-01  3.151290596444E-01
C30 -3.350205398488E-01 -4.506451181018E-01 -3.151290596444E-01
C31  2.426106912925E-01  3.478887951015E-01  2.488092315296E-01
C32 -2.426106912925E-01 -3.478887951015E-01 -2.488092315296E-01
C33 -4.510378404541E-01  4.327418061323E-01  2.970731692701E-01
C34  4.510378404541E-01 -4.327418061323E-01 -2.970731692701E-01
C35  3.503790228062E-01 -1.916443696766E-01  4.141196996791E-01
C36 -3.503790228062E-01  1.916443696766E-01 -4.141196996791E-01
C37  3.272953934837E-01 -2.837340593368E-01  4.977415417227E-01
C38 -3.272953934837E-01  2.837340593368E-01 -4.977415417227E-01
C39  2.768776846478E-01 -2.132511312407E-03  4.245294217185E-01
C40 -2.768776846478E-01  2.132511312407E-03 -4.245294217185E-01
C41 -1.698059970769E-02 -2.935022222887E-01  3.296574182565E-01
C42  1.698059970769E-02  2.935022222887E-01 -3.296574182565E-01
C43 -1.004025791251E-01 -3.358237716503E-01  4.186278942704E-01
C44  1.004025791251E-01  3.358237716503E-01 -4.186278942704E-01
C45 -9.949731538399E-02 -1.228289639365E-01  3.002640636514E-01
C46  9.949731538399E-02  1.228289639365E-01 -3.002640636514E-01
H47  1.112075979168E-01  4.470419537007E-02  1.521019778504E-01
H48 -1.112075979168E-01 -4.470419537007E-02 -1.521019778504E-01
H49 -2.001721174376E-01  1.920844915476E-01  1.610383836934E-01
H50  2.001721174376E-01 -1.920844915476E-01 -1.610383836934E-01
H51 -4.308326810203E-01  3.696761860961E-01  9.511503396978E-02
H52  4.308326810203E-01 -3.696761860961E-01 -9.511503396978E-02
H53 -3.530960390138E-01  4.737042479206E-01 -5.045820173545E-02
H54  3.530960390138E-01 -4.737042479206E-01  5.045820173545E-02
H55 -4.481149213468E-02  4.016162899031E-01 -1.297545732954E-01
H56  4.481149213468E-02 -4.016162899031E-01  1.297545732954E-01
H57  2.705503436672E-01  2.578821887811E-01 -1.363863171165E-01
H58 -2.705503436672E-01 -2.578821887811E-01  1.363863171165E-01
H59  2.928151049531E-01  3.969882122999E-01  3.773285173992E-01
H60 -2.928151049531E-01 -3.969882122999E-01 -3.773285173992E-01
H61  2.651475228247E-01  4.067839577722E-01  1.869632401268E-01
H62 -2.651475228247E-01 -4.067839577722E-01 -1.869632401268E-01
H63  9.061035666556E-02  3.403058466301E-01  2.651840545496E-01
H64 -9.061035666556E-02 -3.403058466301E-01 -2.651840545496E-01
H65  3.022724649757E-01  2.136908423255E-01  2.407214788961E-01
H66 -3.022724649757E-01 -2.136908423255E-01 -2.407214788961E-01
H67 -4.029906908916E-01  2.947298978806E-01  2.934102859114E-01
H68  4.029906908916E-01 -2.947298978806E-01 -2.934102859114E-01
H69 -3.810340556767E-01  4.975301173367E-01  3.460239096751E-01
H70  3.810340556767E-01 -4.975301173367E-01 -3.460239096751E-01
H71 -4.021463242700E-01  4.896512239214E-01  2.367323125516E-01
H72  4.021463242700E-01 -4.896512239214E-01 -2.367323125516E-01
H73 -4.984269234464E-01 -1.909800612331E-01  3.920783270542E-01
H74  4.984269234464E-01  1.909800612331E-01 -3.920783270542E-01
H75  4.098112657491E-01 -2.225510678324E-01 -4.565348872735E-01
H76 -4.098112657491E-01  2.225510678324E-01  4.565348872735E-01
H77  3.723837624934E-01 -4.217730781919E-01  4.904238060657E-01
H78 -3.723837624934E-01  4.217730781919E-01 -4.904238060657E-01
H79  1.809536080867E-01 -2.770967578759E-01 -4.735614715677E-01
H80 -1.809536080867E-01  2.770967578759E-01  4.735614715677E-01
H81  1.246189901507E-01  6.042312659814E-03  4.429278023606E-01
H82 -1.246189901507E-01 -6.042312659814E-03 -4.429278023606E-01
H83  3.050079273652E-01  6.767247568471E-02  3.659272217864E-01
H84 -3.050079273652E-01 -6.767247568471E-02 -3.659272217864E-01
H85  3.417578475614E-01  6.695169454480E-02  4.741166722933E-01
H86 -3.417578475614E-01 -6.695169454480E-02 -4.741166722933E-01
H87 -5.185027731988E-02 -3.982975022187E-01  2.862279066621E-01
H88  5.185027731988E-02  3.982975022187E-01 -2.862279066621E-01
H89 -4.744147560857E-02 -4.628761991388E-01  4.373016042367E-01
H90  4.744147560857E-02  4.628761991388E-01 -4.373016042367E-01
H91 -2.539963965557E-01 -3.388766577578E-01  4.238837689936E-01
H92  2.539963965557E-01  3.388766577578E-01 -4.238837689936E-01
H93 -6.685122157859E-02 -2.374376136918E-01  4.649661487815E-01
H94  6.685122157859E-02  2.374376136918E-01 -4.649661487815E-01
H95 -4.065373096471E-02 -9.845811412096E-02  2.356390084933E-01
H96  4.065373096471E-02  9.845811412096E-02 -2.356390084933E-01
H97 -7.209203371853E-02 -1.060098242182E-02  3.404691015035E-01
H98  7.209203371853E-02  1.060098242182E-02 -3.404691015035E-01
H99 -2.524710328265E-01 -1.282340146347E-01  3.005154614166E-01
H100  2.524710328265E-01  1.282340146347E-01 -3.005154614166E-01


#===END

data_OPT_STEP_97

_symmetry_space_group_name_H-M 'P 1'
_cell_length_a      7.16157156
_cell_length_b      7.66428721
_cell_length_c     15.94546172
_cell_angle_alpha   91.781649
_cell_angle_beta   83.398833
_cell_angle_gamma   87.757663

loop_
_atom_site_label
_atom_site_fract_x
_atom_site_fract_y
_atom_site_fract_z
SI1  2.507579139711E-01 -3.098644654651E-01  3.233250721470E-01
SI2 -2.507579139711E-01  3.098644654651E-01 -3.233250721470E-01
C3  4.528192744610E-01 -6.354341555630E-02  8.187297512456E-02
C4 -4.528192744610E-01  6.354341555630E-02 -8.187297512456E-02
C5  3.223335560329E-01  4.513266272722E-02  4.586028118160E-02
C6 -3.223335560329E-01 -4.513266272722E-02 -4.586028118160E-02
C7  1.453340270338E-01  9.176542517629E-02  8.913657538098E-02
C8 -1.453340270338E-01 -9.176542517629E-02 -8.913657538098E-02
C9  1.469770054316E-02  1.944079186215E-01  5.394342089624E-02
C10 -1.469770054316E-02 -1.944079186215E-01 -5.394342089624E-02
C11 -1.656791194994E-01  2.404008992303E-01  9.814537923639E-02
C12  1.656791194994E-01 -2.404008992303E-01 -9.814537923639E-02
C13 -2.930077311041E-01  3.384789767182E-01  6.133677387455E-02
C14  2.930077311041E-01 -3.384789767182E-01 -6.133677387455E-02
C15 -2.487443827781E-01  3.966376669926E-01 -2.206922706628E-02
C16  2.487443827781E-01 -3.966376669926E-01  2.206922706628E-02
C17 -7.870292018341E-02  3.561513617385E-01 -6.633113902056E-02
C18  7.870292018341E-02 -3.561513617385E-01  6.633113902056E-02
C19  5.967528998856E-02  2.540122927829E-01 -3.026189234933E-02
C20 -5.967528998856E-02 -2.540122927829E-01  3.026189234933E-02
C21  2.348703887572E-01  2.113213873563E-01 -7.323771452767E-02
C22 -2.348703887572E-01 -2.113213873563E-01  7.323771452767E-02
C23  3.690584025704E-01  1.084275733669E-01 -3.759464978942E-02
C24 -3.690584025704E-01 -1.084275733669E-01  3.759464978942E-02
C25  4.005428496366E-01 -1.349260371440E-01  1.611780845758E-01
C26 -4.005428496366E-01  1.349260371440E-01 -1.611780845758E-01
C27  3.478160052723E-01 -2.030996847319E-01  2.270908495962E-01
C28 -3.478160052723E-01  2.030996847319E-01 -2.270908495962E-01
C29  3.350202462818E-01  4.506424380932E-01  3.151296021509E-01
C30 -3.350202462818E-01 -4.506424380932E-01 -3.151296021509E-01
C31  2.426110889378E-01  3.478897701206E-01  2.488094588549E-01
C32 -2.426110889378E-01 -3.478897701206E-01 -2.488094588549E-01
C33 -4.510382924961E-01  4.327423392728E-01  2.970730547952E-01
C34  4.510382924961E-01 -4.327423392728E-01 -2.970730547952E-01
C35  3.503760455246E-01 -1.916460536051E-01  4.141196417851E-01
C36 -3.503760455246E-01  1.916460536051E-01 -4.141196417851E-01
C37  3.272959103704E-01 -2.837373487471E-01  4.977417497588E-01
C38 -3.272959103704E-01  2.837373487471E-01 -4.977417497588E-01
C39  2.768744748307E-01 -2.134762221152E-03  4.245289604361E-01
C40 -2.768744748307E-01  2.134762221152E-03 -4.245289604361E-01
C41 -1.698223005884E-02 -2.935077563744E-01  3.296572035651E-01
C42  1.698223005884E-02  2.935077563744E-01 -3.296572035651E-01
C43 -1.004049648142E-01 -3.358205278050E-01  4.186280681260E-01
C44  1.004049648142E-01  3.358205278050E-01 -4.186280681260E-01
C45 -9.949331820629E-02 -1.228284624807E-01  3.002605331234E-01
C46  9.949331820629E-02  1.228284624807E-01 -3.002605331234E-01
H47  1.112067600479E-01  4.470498090598E-02  1.521025512727E-01
H48 -1.112067600479E-01 -4.470498090598E-02 -1.521025512727E-01
H49 -2.001734368837E-01  1.920797648382E-01  1.610373715955E-01
H50  2.001734368837E-01 -1.920797648382E-01 -1.610373715955E-01
H51 -4.308376272399E-01  3.696686078341E-01  9.511407858268E-02
H52  4.308376272399E-01 -3.696686078341E-01 -9.511407858268E-02
H53 -3.530992340093E-01  4.736964830903E-01 -5.045770228744E-02
H54  3.530992340093E-01 -4.736964830903E-01  5.045770228744E-02
H55 -4.481065350844E-02  4.016208950276E-01 -1.297541110890E-01
H56  4.481065350844E-02 -4.016208950276E-01  1.297541110890E-01
H57  2.705510258715E-01  2.578838752822E-01 -1.363866728481E-01
H58 -2.705510258715E-01 -2.578838752822E-01  1.363866728481E-01
H59  2.928141352605E-01  3.969844630011E-01  3.773291634861E-01
H60 -2.928141352605E-01 -3.969844630011E-01 -3.773291634861E-01
H61  2.651498694069E-01  4.067851637654E-01  1.869631503148E-01
H62 -2.651498694069E-01 -4.067851637654E-01 -1.869631503148E-01
H63  9.061174941516E-02  3.403087083787E-01  2.651847228419E-01
H64 -9.061174941516E-02 -3.403087083787E-01 -2.651847228419E-01
H65  3.022683281693E-01  2.136915721927E-01  2.407208397097E-01
H66 -3.022683281693E-01 -2.136915721927E-01 -2.407208397097E-01
H67 -4.029931984100E-01  2.947310096870E-01  2.934092367223E-01
H68  4.029931984100E-01 -2.947310096870E-01 -2.934092367223E-01
H69 -3.810348083235E-01  4.975274940291E-01  3.460242282905E-01
H70  3.810348083235E-01 -4.975274940291E-01 -3.460242282905E-01
H71 -4.021463624969E-01  4.896530591796E-01  2.367316602745E-01
H72  4.021463624969E-01 -4.896530591796E-01 -2.367316602745E-01
H73 -4.984284899216E-01 -1.909788134400E-01  3.920787119037E-01
H74  4.984284899216E-01  1.909788134400E-01 -3.920787119037E-01
H75  4.098115635397E-01 -2.225502928109E-01 -4.565355893271E-01
H76 -4.098115635397E-01  2.225502928109E-01  4.565355893271E-01
H77  3.723894956008E-01 -4.217746918158E-01  4.904238894522E-01
H78 -3.723894956008E-01  4.217746918158E-01 -4.904238894522E-01
H79  1.809538523226E-01 -2.771042288052E-01 -4.735604826333E-01
H80 -1.809538523226E-01  2.771042288052E-01  4.735604826333E-01
H81  1.246159521027E-01  6.039854206426E-03  4.429272732328E-01
H82 -1.246159521027E-01 -6.039854206426E-03 -4.429272732328E-01
H83  3.050013423095E-01  6.766938023917E-02  3.659268986166E-01
H84 -3.050013423095E-01 -6.766938023917E-02 -3.659268986166E-01
H85  3.417546309745E-01  6.695373338139E-02  4.741158899781E-01
H86 -3.417546309745E-01 -6.695373338139E-02 -4.741158899781E-01
H87 -5.185507149904E-02 -3.983059663557E-01  2.862288480261E-01
H88  5.185507149904E-02  3.983059663557E-01 -2.862288480261E-01
H89 -4.744188793295E-02 -4.628687024267E-01  4.373040663741E-01
H90  4.744188793295E-02  4.628687024267E-01 -4.373040663741E-01
H91 -2.539993409240E-01 -3.388728586446E-01  4.238867153828E-01
H92  2.539993409240E-01  3.388728586446E-01 -4.238867153828E-01
H93 -6.685153147052E-02 -2.374299321315E-01  4.649622273343E-01
H94  6.685153147052E-02  2.374299321315E-01 -4.649622273343E-01
H95 -4.064176563427E-02 -9.845740575203E-02  2.356377421629E-01
H96  4.064176563427E-02  9.845740575203E-02 -2.356377421629E-01
H97 -7.209689905588E-02 -1.059851599559E-02  3.404665866345E-01
H98  7.209689905588E-02  1.059851599559E-02 -3.404665866345E-01
H99 -2.524591828773E-01 -1.282266800759E-01  3.005035920550E-01
H100  2.524591828773E-01  1.282266800759E-01 -3.005035920550E-01


#===END

data_OPT_STEP_98

_symmetry_space_group_name_H-M 'P 1'
_cell_length_a      7.16154669
_cell_length_b      7.66427958
_cell_length_c     15.94546458
_cell_angle_alpha   91.781583
_cell_angle_beta   83.398704
_cell_angle_gamma   87.757829

loop_
_atom_site_label
_atom_site_fract_x
_atom_site_fract_y
_atom_site_fract_z
SI1  2.507566792539E-01 -3.098681078458E-01  3.233249929224E-01
SI2 -2.507566792539E-01  3.098681078458E-01 -3.233249929224E-01
C3  4.528194982660E-01 -6.354480462703E-02  8.187364491448E-02
C4 -4.528194982660E-01  6.354480462703E-02 -8.187364491448E-02
C5  3.223349409275E-01  4.513258461065E-02  4.585961585020E-02
C6 -3.223349409275E-01 -4.513258461065E-02 -4.585961585020E-02
C7  1.453353429345E-01  9.176518907187E-02  8.913634606013E-02
C8 -1.453353429345E-01 -9.176518907187E-02 -8.913634606013E-02
C9  1.470025744975E-02  1.944112306507E-01  5.394436281074E-02
C10 -1.470025744975E-02 -1.944112306507E-01 -5.394436281074E-02
C11 -1.656780807520E-01  2.404014602574E-01  9.814602599142E-02
C12  1.656780807520E-01 -2.404014602574E-01 -9.814602599142E-02
C13 -2.930082948043E-01  3.384769212040E-01  6.133714415056E-02
C14  2.930082948043E-01 -3.384769212040E-01 -6.133714415056E-02
C15 -2.487439609965E-01  3.966334853760E-01 -2.206943042922E-02
C16  2.487439609965E-01 -3.966334853760E-01  2.206943042922E-02
C17 -7.870154183557E-02  3.561507314190E-01 -6.633121946606E-02
C18  7.870154183557E-02 -3.561507314190E-01  6.633121946606E-02
C19  5.967855545945E-02  2.540168381884E-01 -3.026113495927E-02
C20 -5.967855545945E-02 -2.540168381884E-01  3.026113495927E-02
C21  2.348690985605E-01  2.113220009128E-01 -7.323814706211E-02
C22 -2.348690985605E-01 -2.113220009128E-01  7.323814706211E-02
C23  3.690570712153E-01  1.084288092042E-01 -3.759525048426E-02
C24 -3.690570712153E-01 -1.084288092042E-01  3.759525048426E-02
C25  4.005356471087E-01 -1.349245806451E-01  1.611774114380E-01
C26 -4.005356471087E-01  1.349245806451E-01 -1.611774114380E-01
C27  3.478142517114E-01 -2.031025038631E-01  2.270886833046E-01
C28 -3.478142517114E-01  2.031025038631E-01 -2.270886833046E-01
C29  3.350200800064E-01  4.506400639230E-01  3.151299995990E-01
C30 -3.350200800064E-01 -4.506400639230E-01 -3.151299995990E-01
C31  2.426121430585E-01  3.478898953085E-01  2.488092901876E-01
C32 -2.426121430585E-01 -3.478898953085E-01 -2.488092901876E-01
C33 -4.510380564745E-01  4.327446183607E-01  2.970728816058E-01
C34  4.510380564745E-01 -4.327446183607E-01 -2.970728816058E-01
C35  3.503746775397E-01 -1.916474250065E-01  4.141190144073E-01
C36 -3.503746775397E-01  1.916474250065E-01 -4.141190144073E-01
C37  3.272979942188E-01 -2.837414410735E-01  4.977414388650E-01
C38 -3.272979942188E-01  2.837414410735E-01 -4.977414388650E-01
C39  2.768712588022E-01 -2.136346275273E-03  4.245279097647E-01
C40 -2.768712588022E-01  2.136346275273E-03 -4.245279097647E-01
C41 -1.698241052599E-02 -2.935128508385E-01  3.296563750266E-01
C42  1.698241052599E-02  2.935128508385E-01 -3.296563750266E-01
C43 -1.004066719413E-01 -3.358168398415E-01  4.186281858724E-01
C44  1.004066719413E-01  3.358168398415E-01 -4.186281858724E-01
C45 -9.948970800131E-02 -1.228299613929E-01  3.002555497187E-01
C46  9.948970800131E-02  1.228299613929E-01 -3.002555497187E-01
H47  1.112079195705E-01  4.470465745186E-02  1.521025722787E-01
H48 -1.112079195705E-01 -4.470465745186E-02 -1.521025722787E-01
H49 -2.001736443351E-01  1.920763784146E-01  1.610370498792E-01
H50  2.001736443351E-01 -1.920763784146E-01 -1.610370498792E-01
H51 -4.308413763420E-01  3.696634382868E-01  9.511384028801E-02
H52  4.308413763420E-01 -3.696634382868E-01 -9.511384028801E-02
H53 -3.531035034763E-01  4.736870406887E-01 -5.045787617084E-02
H54  3.531035034763E-01 -4.736870406887E-01  5.045787617084E-02
H55 -4.481101489496E-02  4.016175343841E-01 -1.297550208017E-01
H56  4.481101489496E-02 -4.016175343841E-01  1.297550208017E-01
H57  2.705513598602E-01  2.578823355479E-01 -1.363869990578E-01
H58 -2.705513598602E-01 -2.578823355479E-01  1.363869990578E-01
H59  2.928132750810E-01  3.969812158593E-01  3.773298397016E-01
H60 -2.928132750810E-01 -3.969812158593E-01 -3.773298397016E-01
H61  2.651528770948E-01  4.067857372663E-01  1.869626250811E-01
H62 -2.651528770948E-01 -4.067857372663E-01 -1.869626250811E-01
H63  9.061334554743E-02  3.403098211084E-01  2.651848273649E-01
H64 -9.061334554743E-02 -3.403098211084E-01 -2.651848273649E-01
H65  3.022669174197E-01  2.136916047938E-01  2.407200726444E-01
H66 -3.022669174197E-01 -2.136916047938E-01 -2.407200726444E-01
H67 -4.029924699561E-01  2.947341611509E-01  2.934072560763E-01
H68  4.029924699561E-01 -2.947341611509E-01 -2.934072560763E-01
H69 -3.810344905467E-01  4.975263437702E-01  3.460244875356E-01
H70  3.810344905467E-01 -4.975263437702E-01 -3.460244875356E-01
H71 -4.021469046800E-01  4.896594521185E-01  2.367315316395E-01
H72  4.021469046800E-01 -4.896594521185E-01 -2.367315316395E-01
H73 -4.984283159515E-01 -1.909768061275E-01  3.920782861769E-01
H74  4.984283159515E-01  1.909768061275E-01 -3.920782861769E-01
H75  4.098142132147E-01 -2.225516659736E-01 -4.565367371875E-01
H76 -4.098142132147E-01  2.225516659736E-01  4.565367371875E-01
H77  3.723952990688E-01 -4.217775843247E-01  4.904234069850E-01
H78 -3.723952990688E-01  4.217775843247E-01 -4.904234069850E-01
H79  1.809556012340E-01 -2.771111897679E-01 -4.735598005240E-01
H80 -1.809556012340E-01  2.771111897679E-01  4.735598005240E-01
H81  1.246128702045E-01  6.037750322779E-03  4.429263187631E-01
H82 -1.246128702045E-01 -6.037750322779E-03 -4.429263187631E-01
H83  3.049947046945E-01  6.766589626662E-02  3.659256334931E-01
H84 -3.049947046945E-01 -6.766589626662E-02 -3.659256334931E-01
H85  3.417523743004E-01  6.695612467549E-02  4.741140950098E-01
H86 -3.417523743004E-01 -6.695612467549E-02 -4.741140950098E-01
H87 -5.185803935489E-02 -3.983144190471E-01  2.862297106408E-01
H88  5.185803935489E-02  3.983144190471E-01 -2.862297106408E-01
H89 -4.744178561076E-02 -4.628607325163E-01  4.373072469832E-01
H90  4.744178561076E-02  4.628607325163E-01 -4.373072469832E-01
H91 -2.540016532043E-01 -3.388691523008E-01  4.238886585490E-01
H92  2.540016532043E-01  3.388691523008E-01 -4.238886585490E-01
H93 -6.685290914181E-02 -2.374206231547E-01  4.649584754537E-01
H94  6.685290914181E-02  2.374206231547E-01 -4.649584754537E-01
H95 -4.063201983267E-02 -9.845986522826E-02  2.356341162731E-01
H96  4.063201983267E-02  9.845986522826E-02 -2.356341162731E-01
H97 -7.209961760897E-02 -1.059836614941E-02  3.404617224634E-01
H98  7.209961760897E-02  1.059836614941E-02 -3.404617224634E-01
H99 -2.524502258095E-01 -1.282234666292E-01  3.004928259120E-01
H100  2.524502258095E-01  1.282234666292E-01 -3.004928259120E-01


#===END

data_OPT_STEP_99

_symmetry_space_group_name_H-M 'P 1'
_cell_length_a      7.16155951
_cell_length_b      7.66431553
_cell_length_c     15.94557685
_cell_angle_alpha   91.781789
_cell_angle_beta   83.398597
_cell_angle_gamma   87.757693

loop_
_atom_site_label
_atom_site_fract_x
_atom_site_fract_y
_atom_site_fract_z
SI1  2.507486953767E-01 -3.098795471489E-01  3.233283453166E-01
SI2 -2.507486953767E-01  3.098795471489E-01 -3.233283453166E-01
C3  4.528220288526E-01 -6.354583308244E-02  8.187614864847E-02
C4 -4.528220288526E-01  6.354583308244E-02 -8.187614864847E-02
C5  3.223351847559E-01  4.513532864247E-02  4.585956343564E-02
C6 -3.223351847559E-01 -4.513532864247E-02 -4.585956343564E-02
C7  1.453335775217E-01  9.176745148808E-02  8.913695798609E-02
C8 -1.453335775217E-01 -9.176745148808E-02 -8.913695798609E-02
C9  1.470174783927E-02  1.944208707299E-01  5.394624538744E-02
C10 -1.470174783927E-02 -1.944208707299E-01 -5.394624538744E-02
C11 -1.656788453911E-01  2.404072142422E-01  9.814584443561E-02
C12  1.656788453911E-01 -2.404072142422E-01 -9.814584443561E-02
C13 -2.930115247394E-01  3.384744149146E-01  6.133523112540E-02
C14  2.930115247394E-01 -3.384744149146E-01 -6.133523112540E-02
C15 -2.487392693781E-01  3.966274165044E-01 -2.207187190663E-02
C16  2.487392693781E-01 -3.966274165044E-01  2.207187190663E-02
C17 -7.869468807503E-02  3.561574363049E-01 -6.633287143117E-02
C18  7.869468807503E-02 -3.561574363049E-01  6.633287143116E-02
C19  5.968339863190E-02  2.540273022735E-01 -3.026177316405E-02
C20 -5.968339863190E-02 -2.540273022735E-01  3.026177316405E-02
C21  2.348672078489E-01  2.113241664499E-01 -7.324038217593E-02
C22 -2.348672078489E-01 -2.113241664499E-01  7.324038217593E-02
C23  3.690518965416E-01  1.084303421976E-01 -3.759658034151E-02
C24 -3.690518965416E-01 -1.084303421976E-01  3.759658034151E-02
C25  4.005273318128E-01 -1.349185579503E-01  1.611768457740E-01
C26 -4.005273318128E-01  1.349185579503E-01 -1.611768457740E-01
C27  3.478126655398E-01 -2.031069028446E-01  2.270864624832E-01
C28 -3.478126655398E-01  2.031069028446E-01 -2.270864624832E-01
C29  3.350194018194E-01  4.506336636394E-01  3.151319775840E-01
C30 -3.350194018194E-01 -4.506336636394E-01 -3.151319775840E-01
C31  2.426164495057E-01  3.478903668203E-01  2.488105429705E-01
C32 -2.426164495057E-01 -3.478903668203E-01 -2.488105429705E-01
C33 -4.510411819446E-01  4.327474948725E-01  2.970738112651E-01
C34  4.510411819446E-01 -4.327474948725E-01 -2.970738112651E-01
C35  3.503682315039E-01 -1.916528765380E-01  4.141195981687E-01
C36 -3.503682315039E-01  1.916528765380E-01 -4.141195981687E-01
C37  3.272983137444E-01 -2.837481912133E-01  4.977427439030E-01
C38 -3.272983137444E-01  2.837481912133E-01 -4.977427439030E-01
C39  2.768664455979E-01 -2.141592423308E-03  4.245278264243E-01
C40 -2.768664455979E-01  2.141592423308E-03 -4.245278264243E-01
C41 -1.698384617380E-02 -2.935295601016E-01  3.296568624937E-01
C42  1.698384617380E-02  2.935295601016E-01 -3.296568624937E-01
C43 -1.004113613088E-01 -3.358121590315E-01  4.186282534113E-01
C44  1.004113613088E-01  3.358121590315E-01 -4.186282534113E-01
C45 -9.948249194248E-02 -1.228318848262E-01  3.002498391976E-01
C46  9.948249194248E-02  1.228318848262E-01 -3.002498391976E-01
H47  1.112056245901E-01  4.470778965642E-02  1.521040089000E-01
H48 -1.112056245901E-01 -4.470778965642E-02 -1.521040089000E-01
H49 -2.001782945123E-01  1.920706814619E-01  1.610334581642E-01
H50  2.001782945123E-01 -1.920706814619E-01 -1.610334581642E-01
H51 -4.308559562448E-01  3.696493481235E-01  9.511008572686E-02
H52  4.308559562448E-01 -3.696493481235E-01 -9.511008572686E-02
H53 -3.531138846462E-01  4.736685611251E-01 -5.045770552576E-02
H54  3.531138846462E-01 -4.736685611251E-01  5.045770552576E-02
H55 -4.480631626295E-02  4.016250520429E-01 -1.297552389204E-01
H56  4.480631626295E-02 -4.016250520429E-01  1.297552389204E-01
H57  2.705531187591E-01  2.578831924174E-01 -1.363874354636E-01
H58 -2.705531187591E-01 -2.578831924174E-01  1.363874354636E-01
H59  2.928109202514E-01  3.969743463183E-01  3.773327298750E-01
H60 -2.928109202514E-01 -3.969743463183E-01 -3.773327298750E-01
H61  2.651631592162E-01  4.067831233408E-01  1.869624229748E-01
H62 -2.651631592162E-01 -4.067831233408E-01 -1.869624229748E-01
H63  9.062123139136E-02  3.403143082958E-01  2.651862298709E-01
H64 -9.062123139136E-02 -3.403143082958E-01 -2.651862298709E-01
H65  3.022609611108E-01  2.136920312919E-01  2.407206699592E-01
H66 -3.022609611108E-01 -2.136920312919E-01 -2.407206699592E-01
H67 -4.029974841198E-01  2.947390803065E-01  2.934070746738E-01
H68  4.029974841198E-01 -2.947390803065E-01 -2.934070746738E-01
H69 -3.810373740097E-01  4.975248831173E-01  3.460249216133E-01
H70  3.810373740097E-01 -4.975248831173E-01 -3.460249216133E-01
H71 -4.021496131841E-01  4.896631646162E-01  2.367302457351E-01
H72  4.021496131841E-01 -4.896631646162E-01 -2.367302457351E-01
H73 -4.984313882918E-01 -1.909774988705E-01  3.920800109723E-01
H74  4.984313882918E-01  1.909774988705E-01 -3.920800109723E-01
H75  4.098116341216E-01 -2.225456611195E-01 -4.565374717418E-01
H76 -4.098116341216E-01  2.225456611195E-01  4.565374717418E-01
H77  3.724079716279E-01 -4.217804816378E-01  4.904268173380E-01
H78 -3.724079716279E-01  4.217804816378E-01 -4.904268173380E-01
H79  1.809548838355E-01 -2.771262984005E-01 -4.735580981206E-01
H80 -1.809548838355E-01  2.771262984005E-01  4.735580981206E-01
H81  1.246090282745E-01  6.034227651094E-03  4.429248182074E-01
H82 -1.246090282745E-01 -6.034227651094E-03 -4.429248182074E-01
H83  3.049849468614E-01  6.766125289728E-02  3.659269990622E-01
H84 -3.049849468614E-01 -6.766125289728E-02 -3.659269990622E-01
H85  3.417479698046E-01  6.695765129905E-02  4.741143475273E-01
H86 -3.417479698046E-01 -6.695765129905E-02 -4.741143475273E-01
H87 -5.186773581966E-02 -3.983332526261E-01  2.862326096802E-01
H88  5.186773581966E-02  3.983332526261E-01 -2.862326096802E-01
H89 -4.744060029515E-02 -4.628428393948E-01  4.373145265509E-01
H90  4.744060029515E-02  4.628428393948E-01 -4.373145265509E-01
H91 -2.540062841299E-01 -3.388600743989E-01  4.238959204651E-01
H92  2.540062841299E-01  3.388600743989E-01 -4.238959204651E-01
H93 -6.685735352322E-02 -2.374017881435E-01  4.649468152378E-01
H94  6.685735352322E-02  2.374017881435E-01 -4.649468152378E-01
H95 -4.062316516901E-02 -9.846312821846E-02  2.356305893558E-01
H96  4.062316516901E-02  9.846312821846E-02 -2.356305893558E-01
H97 -7.209556632139E-02 -1.059972297899E-02  3.404553636302E-01
H98  7.209556632139E-02  1.059972297899E-02 -3.404553636302E-01
H99 -2.524302724829E-01 -1.282061109980E-01  3.004775050157E-01
H100  2.524302724829E-01  1.282061109980E-01 -3.004775050157E-01


#===END

data_OPT_STEP_100

_symmetry_space_group_name_H-M 'P 1'
_cell_length_a      7.16155951
_cell_length_b      7.66431553
_cell_length_c     15.94557685
_cell_angle_alpha   91.781789
_cell_angle_beta   83.398597
_cell_angle_gamma   87.757693

loop_
_atom_site_label
_atom_site_fract_x
_atom_site_fract_y
_atom_site_fract_z
SI1  2.507486953767E-01 -3.098795471489E-01  3.233283453166E-01
SI2 -2.507486953767E-01  3.098795471489E-01 -3.233283453166E-01
C3  4.528220288526E-01 -6.354583308244E-02  8.187614864847E-02
C4 -4.528220288526E-01  6.354583308244E-02 -8.187614864847E-02
C5  3.223351847559E-01  4.513532864247E-02  4.585956343564E-02
C6 -3.223351847559E-01 -4.513532864247E-02 -4.585956343564E-02
C7  1.453335775217E-01  9.176745148808E-02  8.913695798609E-02
C8 -1.453335775217E-01 -9.176745148808E-02 -8.913695798609E-02
C9  1.470174783927E-02  1.944208707299E-01  5.394624538744E-02
C10 -1.470174783927E-02 -1.944208707299E-01 -5.394624538744E-02
C11 -1.656788453911E-01  2.404072142422E-01  9.814584443561E-02
C12  1.656788453911E-01 -2.404072142422E-01 -9.814584443561E-02
C13 -2.930115247394E-01  3.384744149146E-01  6.133523112540E-02
C14  2.930115247394E-01 -3.384744149146E-01 -6.133523112540E-02
C15 -2.487392693781E-01  3.966274165044E-01 -2.207187190663E-02
C16  2.487392693781E-01 -3.966274165044E-01  2.207187190663E-02
C17 -7.869468807503E-02  3.561574363049E-01 -6.633287143117E-02
C18  7.869468807503E-02 -3.561574363049E-01  6.633287143116E-02
C19  5.968339863190E-02  2.540273022735E-01 -3.026177316405E-02
C20 -5.968339863190E-02 -2.540273022735E-01  3.026177316405E-02
C21  2.348672078489E-01  2.113241664499E-01 -7.324038217593E-02
C22 -2.348672078489E-01 -2.113241664499E-01  7.324038217593E-02
C23  3.690518965416E-01  1.084303421976E-01 -3.759658034151E-02
C24 -3.690518965416E-01 -1.084303421976E-01  3.759658034151E-02
C25  4.005273318128E-01 -1.349185579503E-01  1.611768457740E-01
C26 -4.005273318128E-01  1.349185579503E-01 -1.611768457740E-01
C27  3.478126655398E-01 -2.031069028446E-01  2.270864624832E-01
C28 -3.478126655398E-01  2.031069028446E-01 -2.270864624832E-01
C29  3.350194018194E-01  4.506336636394E-01  3.151319775840E-01
C30 -3.350194018194E-01 -4.506336636394E-01 -3.151319775840E-01
C31  2.426164495057E-01  3.478903668203E-01  2.488105429705E-01
C32 -2.426164495057E-01 -3.478903668203E-01 -2.488105429705E-01
C33 -4.510411819446E-01  4.327474948725E-01  2.970738112651E-01
C34  4.510411819446E-01 -4.327474948725E-01 -2.970738112651E-01
C35  3.503682315039E-01 -1.916528765380E-01  4.141195981687E-01
C36 -3.503682315039E-01  1.916528765380E-01 -4.141195981687E-01
C37  3.272983137444E-01 -2.837481912133E-01  4.977427439030E-01
C38 -3.272983137444E-01  2.837481912133E-01 -4.977427439030E-01
C39  2.768664455979E-01 -2.141592423308E-03  4.245278264243E-01
C40 -2.768664455979E-01  2.141592423308E-03 -4.245278264243E-01
C41 -1.698384617380E-02 -2.935295601016E-01  3.296568624937E-01
C42  1.698384617380E-02  2.935295601016E-01 -3.296568624937E-01
C43 -1.004113613088E-01 -3.358121590315E-01  4.186282534113E-01
C44  1.004113613088E-01  3.358121590315E-01 -4.186282534113E-01
C45 -9.948249194248E-02 -1.228318848262E-01  3.002498391976E-01
C46  9.948249194248E-02  1.228318848262E-01 -3.002498391976E-01
H47  1.112056245901E-01  4.470778965642E-02  1.521040089000E-01
H48 -1.112056245901E-01 -4.470778965642E-02 -1.521040089000E-01
H49 -2.001782945123E-01  1.920706814619E-01  1.610334581642E-01
H50  2.001782945123E-01 -1.920706814619E-01 -1.610334581642E-01
H51 -4.308559562448E-01  3.696493481235E-01  9.511008572686E-02
H52  4.308559562448E-01 -3.696493481235E-01 -9.511008572686E-02
H53 -3.531138846462E-01  4.736685611251E-01 -5.045770552576E-02
H54  3.531138846462E-01 -4.736685611251E-01  5.045770552576E-02
H55 -4.480631626295E-02  4.016250520429E-01 -1.297552389204E-01
H56  4.480631626295E-02 -4.016250520429E-01  1.297552389204E-01
H57  2.705531187591E-01  2.578831924174E-01 -1.363874354636E-01
H58 -2.705531187591E-01 -2.578831924174E-01  1.363874354636E-01
H59  2.928109202514E-01  3.969743463183E-01  3.773327298750E-01
H60 -2.928109202514E-01 -3.969743463183E-01 -3.773327298750E-01
H61  2.651631592162E-01  4.067831233408E-01  1.869624229748E-01
H62 -2.651631592162E-01 -4.067831233408E-01 -1.869624229748E-01
H63  9.062123139136E-02  3.403143082958E-01  2.651862298709E-01
H64 -9.062123139136E-02 -3.403143082958E-01 -2.651862298709E-01
H65  3.022609611108E-01  2.136920312919E-01  2.407206699592E-01
H66 -3.022609611108E-01 -2.136920312919E-01 -2.407206699592E-01
H67 -4.029974841198E-01  2.947390803065E-01  2.934070746738E-01
H68  4.029974841198E-01 -2.947390803065E-01 -2.934070746738E-01
H69 -3.810373740097E-01  4.975248831173E-01  3.460249216133E-01
H70  3.810373740097E-01 -4.975248831173E-01 -3.460249216133E-01
H71 -4.021496131841E-01  4.896631646162E-01  2.367302457351E-01
H72  4.021496131841E-01 -4.896631646162E-01 -2.367302457351E-01
H73 -4.984313882918E-01 -1.909774988705E-01  3.920800109723E-01
H74  4.984313882918E-01  1.909774988705E-01 -3.920800109723E-01
H75  4.098116341216E-01 -2.225456611195E-01 -4.565374717418E-01
H76 -4.098116341216E-01  2.225456611195E-01  4.565374717418E-01
H77  3.724079716279E-01 -4.217804816378E-01  4.904268173380E-01
H78 -3.724079716279E-01  4.217804816378E-01 -4.904268173380E-01
H79  1.809548838355E-01 -2.771262984005E-01 -4.735580981206E-01
H80 -1.809548838355E-01  2.771262984005E-01  4.735580981206E-01
H81  1.246090282745E-01  6.034227651094E-03  4.429248182074E-01
H82 -1.246090282745E-01 -6.034227651094E-03 -4.429248182074E-01
H83  3.049849468614E-01  6.766125289728E-02  3.659269990622E-01
H84 -3.049849468614E-01 -6.766125289728E-02 -3.659269990622E-01
H85  3.417479698046E-01  6.695765129905E-02  4.741143475273E-01
H86 -3.417479698046E-01 -6.695765129905E-02 -4.741143475273E-01
H87 -5.186773581966E-02 -3.983332526261E-01  2.862326096802E-01
H88  5.186773581966E-02  3.983332526261E-01 -2.862326096802E-01
H89 -4.744060029515E-02 -4.628428393948E-01  4.373145265509E-01
H90  4.744060029515E-02  4.628428393948E-01 -4.373145265509E-01
H91 -2.540062841299E-01 -3.388600743989E-01  4.238959204651E-01
H92  2.540062841299E-01  3.388600743989E-01 -4.238959204651E-01
H93 -6.685735352322E-02 -2.374017881435E-01  4.649468152378E-01
H94  6.685735352322E-02  2.374017881435E-01 -4.649468152378E-01
H95 -4.062316516901E-02 -9.846312821846E-02  2.356305893558E-01
H96  4.062316516901E-02  9.846312821846E-02 -2.356305893558E-01
H97 -7.209556632139E-02 -1.059972297899E-02  3.404553636302E-01
H98  7.209556632139E-02  1.059972297899E-02 -3.404553636302E-01
H99 -2.524302724829E-01 -1.282061109980E-01  3.004775050157E-01
H100  2.524302724829E-01  1.282061109980E-01 -3.004775050157E-01


#===END
