###############################################################################
#
#                    CRYSTAL17 CIF FILE
#
###############################################################################

data_OPT_STEP_0

_symmetry_space_group_name_H-M 'P 1'
_cell_length_a     17.97300000
_cell_length_b      7.35200000
_cell_length_c      6.24500000
_cell_angle_alpha   90.000000
_cell_angle_beta   90.646004
_cell_angle_gamma   90.000000

loop_
_atom_site_label
_atom_site_fract_x
_atom_site_fract_y
_atom_site_fract_z
C1  1.575753598120E-01 -4.009466653225E-01  4.863970571230E-01
H2  1.696212266048E-01 -3.151535792233E-01 -3.769445685037E-01
C3  8.478332862751E-02 -4.092419470552E-01  4.101605578990E-01
C4  2.145952559886E-01 -4.984238112114E-01  3.867006309457E-01
H5  4.195233611322E-02 -3.325086760977E-01  4.902634828217E-01
C6  6.678998318810E-02  4.850886541153E-01  2.325006286900E-01
C7  1.955648541922E-01  3.982536809978E-01  2.055810733662E-01
C8  2.920701368147E-01 -4.915970612625E-01  4.699759014248E-01
H9  9.638152434137E-03  4.769008578629E-01  1.764204227894E-01
C10  1.228058951676E-01  3.901706553625E-01  1.288867004316E-01
H11  2.377382886601E-01  3.200886278802E-01  1.248639296755E-01
C12  3.517075415806E-01  4.618226111921E-01  3.456132024190E-01
C13  3.066835734375E-01 -4.317789373745E-01 -3.155469302022E-01
H14  1.101753370292E-01  3.078495119370E-01 -1.044934996415E-02
H15  3.433582987042E-01  4.164832857322E-01  1.822466396768E-01
C16  4.263721481199E-01  4.775315393016E-01  4.208842171250E-01
H17  2.606981151778E-01 -4.015224639313E-01 -2.111455082730E-01
C18  3.773315471675E-01 -4.133640034747E-01 -2.379410457908E-01
C19  4.869937694319E-01  4.337783577613E-01  2.924454534164E-01
C20  4.400281792017E-01 -4.553339134053E-01 -3.662772695848E-01
H21  3.866790347384E-01 -3.654558496047E-01 -7.600716840199E-02
H22  4.771466455094E-01  3.820442263742E-01  1.320913465552E-01
C23 -4.400281792017E-01  4.553339134053E-01  3.662772695848E-01
C24 -4.869937694319E-01 -4.337783577613E-01 -2.924454534164E-01
C25 -3.773315471675E-01  4.133640034747E-01  2.379410457908E-01
C26 -4.263721481199E-01 -4.775315393016E-01 -4.208842171250E-01
H27 -4.771466455094E-01 -3.820442263742E-01 -1.320913465552E-01
H28 -3.866790347384E-01  3.654558496047E-01  7.600716840199E-02
C29 -3.066835734375E-01  4.317789373745E-01  3.155469302022E-01
C30 -3.517075415806E-01 -4.618226111921E-01 -3.456132024190E-01
H31 -2.606981151778E-01  4.015224639313E-01  2.111455082730E-01
C32 -2.920701368147E-01  4.915970612625E-01 -4.699759014248E-01
H33 -3.433582987042E-01 -4.164832857322E-01 -1.822466396768E-01
C34 -2.145952559886E-01  4.984238112114E-01 -3.867006309457E-01
C35 -1.955648541922E-01 -3.982536809978E-01 -2.055810733662E-01
C36 -1.575753598120E-01  4.009466653225E-01 -4.863970571230E-01
H37 -2.377382886601E-01 -3.200886278802E-01 -1.248639296755E-01
C38 -1.228058951676E-01 -3.901706553625E-01 -1.288867004316E-01
H39 -1.696212266048E-01  3.151535792233E-01  3.769445685037E-01
C40 -8.478332862751E-02  4.092419470552E-01 -4.101605578990E-01
H41 -1.101753370292E-01 -3.078495119370E-01  1.044934996415E-02
C42 -6.678998318810E-02 -4.850886541153E-01 -2.325006286900E-01
H43 -4.195233611322E-02  3.325086760977E-01 -4.902634828217E-01
H44 -9.638152434137E-03 -4.769008578629E-01 -1.764204227894E-01
C45 -1.595626280471E-01  9.870993007957E-02 -1.005944674933E-03
H46 -1.730267029080E-01  1.799085626015E-01 -1.404711586957E-01
C47 -8.701698519324E-02  1.021830691526E-01  7.773162284843E-02
C48 -2.147147091218E-01 -3.998207652884E-03  1.001386950795E-01
H49 -4.558958073651E-02  1.816978447459E-01 -4.712067407042E-03
C50 -6.757101624147E-02  4.390707048694E-03  2.604436250514E-01
C51 -1.941779212501E-01 -1.010794791654E-01  2.847565576562E-01
C52 -2.921744177673E-01 -5.353915704298E-03  1.637637887988E-02
H53 -1.061235176493E-02  5.786198539989E-03  3.189939986606E-01
C54 -1.217932220470E-01 -9.619244371586E-02  3.649476389827E-01
H55 -2.347237479404E-01 -1.843182747871E-01  3.657345789674E-01
C56 -3.511793413423E-01 -5.038627927448E-02  1.438036651158E-01
C57 -3.076606234817E-01  4.967837055291E-02 -1.995484687430E-01
H58 -1.080383410579E-01 -1.735569073288E-01 -4.923735989453E-01
H59 -3.420408204503E-01 -9.341796336684E-02  3.077941143202E-01
C60 -4.261893350355E-01 -3.097474457059E-02  7.279011710306E-02
H61 -2.620406280618E-01  7.629406791526E-02 -3.066224280237E-01
C62 -3.786317262529E-01  7.052793180522E-02 -2.734666025959E-01
C63 -4.861573594152E-01 -6.665197148898E-02  2.069456889177E-01
C64 -4.406981494910E-01  3.620679838602E-02 -1.395695093278E-01
H65 -3.887451631356E-01  1.172140293523E-01 -4.355742040036E-01
H66 -4.756561497882E-01 -1.185376445254E-01  3.668983604486E-01
C67  4.406981494910E-01 -3.620679838602E-02  1.395695093278E-01
C68  4.861573594152E-01  6.665197148898E-02 -2.069456889177E-01
C69  3.786317262529E-01 -7.052793180522E-02  2.734666025959E-01
C70  4.261893350355E-01  3.097474457059E-02 -7.279011710306E-02
H71  4.756561497882E-01  1.185376445254E-01 -3.668983604486E-01
H72  3.887451631356E-01 -1.172140293523E-01  4.355742040036E-01
C73  3.076606234817E-01 -4.967837055291E-02  1.995484687430E-01
C74  3.511793413423E-01  5.038627927448E-02 -1.438036651158E-01
H75  2.620406280618E-01 -7.629406791526E-02  3.066224280237E-01
C76  2.921744177673E-01  5.353915704298E-03 -1.637637887988E-02
H77  3.420408204503E-01  9.341796336684E-02 -3.077941143202E-01
C78  2.147147091218E-01  3.998207652884E-03 -1.001386950795E-01
C79  1.941779212501E-01  1.010794791654E-01 -2.847565576562E-01
C80  1.595626280471E-01 -9.870993007957E-02  1.005944674933E-03
H81  2.347237479404E-01  1.843182747871E-01 -3.657345789674E-01
C82  1.217932220470E-01  9.619244371586E-02 -3.649476389827E-01
H83  1.730267029080E-01 -1.799085626015E-01  1.404711586957E-01
C84  8.701698519324E-02 -1.021830691526E-01 -7.773162284843E-02
H85  1.080383410579E-01  1.735569073288E-01  4.923735989453E-01
C86  6.757101624147E-02 -4.390707048694E-03 -2.604436250514E-01
H87  4.558958073651E-02 -1.816978447459E-01  4.712067407042E-03
H88  1.061235176493E-02 -5.786198539989E-03 -3.189939986606E-01


#===END
