###############################################################################
#
#                    CRYSTAL17 CIF FILE
#
###############################################################################

data_OPT_STEP_0

_symmetry_space_group_name_H-M 'P 1'
_cell_length_a     17.97300000
_cell_length_b      7.35200000
_cell_length_c      6.24500000
_cell_angle_alpha   90.000000
_cell_angle_beta   90.646004
_cell_angle_gamma   90.000000

loop_
_atom_site_label
_atom_site_fract_x
_atom_site_fract_y
_atom_site_fract_z
C1  1.576630649482E-01 -4.048058399305E-01  4.934219750309E-01
H2  1.693608530240E-01 -3.237960496610E-01 -3.656620895482E-01
C3  8.511643767729E-02 -4.094124452531E-01  4.149856135965E-01
C4  2.148614382671E-01 -4.994690466325E-01  3.907335620656E-01
H5  4.216731247979E-02 -3.353415898290E-01  4.980643832376E-01
C6  6.753594793958E-02  4.919338172635E-01  2.314740285079E-01
C7  1.962656118573E-01  4.044718682724E-01  2.035871962220E-01
C8  2.921045240302E-01 -4.964178508893E-01  4.764004981443E-01
H9  1.053608379457E-02  4.862588920230E-01  1.737454693485E-01
C10  1.238147331367E-01  4.005397384791E-01  1.243705160892E-01
H11  2.384025818970E-01  3.285004218467E-01  1.195878172923E-01
C12  3.516723771343E-01  4.554376653674E-01  3.527113414092E-01
C13  3.069287922412E-01 -4.378540265985E-01 -3.086389152455E-01
H14  1.116259370145E-01  3.237752516987E-01 -1.965615998663E-02
H15  3.434308333999E-01  4.100379940409E-01  1.893277104049E-01
C16  4.263205612100E-01  4.718596249629E-01  4.273304932410E-01
H17  2.610692750291E-01 -4.068541102163E-01 -2.041052845657E-01
C18  3.776433837460E-01 -4.204421670283E-01 -2.309521633172E-01
C19  4.865807179098E-01  4.314791397394E-01  2.963818834259E-01
C20  4.403116820807E-01 -4.607895764974E-01 -3.601558877416E-01
H21  3.870124902589E-01 -3.726559675049E-01 -6.895681034674E-02
H22  4.763996218618E-01  3.797178171205E-01  1.361694212849E-01
C23 -4.404146466120E-01  4.583375385219E-01  3.665518725162E-01
C24 -4.865704109373E-01 -4.356472465329E-01 -2.891178810719E-01
C25 -3.783198896744E-01  4.223939046412E-01  2.335222798785E-01
C26 -4.262409219453E-01 -4.746971697681E-01 -4.207636067801E-01
H27 -4.764031734357E-01 -3.837887647282E-01 -1.290235648208E-01
H28 -3.884117076150E-01  3.755858527476E-01  7.147615405242E-02
C29 -3.074154046781E-01  4.442465402231E-01  3.073595462145E-01
C30 -3.512145057885E-01 -4.559986665502E-01 -3.490981958932E-01
H31 -2.616694682105E-01  4.183742857998E-01  2.004177956844E-01
C32 -2.921400305518E-01 -4.994668739225E-01 -4.771990243998E-01
H33 -3.419682857545E-01 -4.130273283244E-01 -1.851248149509E-01
C34 -2.144485268434E-01 -4.970470277682E-01 -3.958283737998E-01
C35 -1.934771635850E-01 -3.927023335600E-01 -2.172373194871E-01
C36 -1.594749229109E-01  3.974308953124E-01 -4.939810267662E-01
H37 -2.340594547035E-01 -3.072699312463E-01 -1.395415334150E-01
C38 -1.207843840779E-01 -3.934384731676E-01 -1.395685453590E-01
H39 -1.732870764889E-01  3.114489669608E-01  3.708113202606E-01
C40 -8.668387614344E-02  3.976464326495E-01 -4.174433214534E-01
H41 -1.065877410726E-01 -3.105173529095E-01 -1.580408966987E-03
C42 -6.682505148991E-02 -4.975455439006E-01 -2.405829751298E-01
H43 -4.537460436986E-02  3.154692415227E-01 -4.969111669904E-01
H44 -9.714420404427E-03 -4.964281643799E-01 -1.836809547795E-01
C45 -1.576630649483E-01  9.519416006950E-02  6.578024968292E-03
H46 -1.693608530240E-01  1.762039503390E-01 -1.343379104526E-01
C47 -8.511643767730E-02  9.058755474687E-02  8.501438640275E-02
C48 -2.148614382671E-01  5.309533675190E-04  1.092664379336E-01
H49 -4.216731247979E-02  1.646584101710E-01  1.935616761635E-03
C50 -6.753594793958E-02 -8.066182736534E-03  2.685259714913E-01
C51 -1.962656118573E-01 -9.552813172756E-02  2.964128037772E-01
C52 -2.921045240302E-01  3.582149110718E-03  2.359950185491E-02
H53 -1.053608379457E-02 -1.374110797701E-02  3.262545306507E-01
C54 -1.238147331367E-01 -9.946026152095E-02  3.756294839100E-01
H55 -2.384025818970E-01 -1.714995781533E-01  3.804121827069E-01
C56 -3.516723771343E-01 -4.456233463262E-02  1.472886585900E-01
C57 -3.069287922412E-01  6.214597340152E-02 -1.913610847553E-01
H58 -1.116259370145E-01 -1.762247483013E-01 -4.803438400142E-01
H59 -3.434308333999E-01 -8.996200595906E-02  3.106722895943E-01
C60 -4.263205612100E-01 -2.814037503713E-02  7.266950675817E-02
H61 -2.610692750291E-01  9.314588978373E-02 -2.958947154351E-01
C62 -3.776433837460E-01  7.955783297171E-02 -2.690478366836E-01
C63 -4.865807179098E-01 -6.852086026061E-02  2.036181165733E-01
C64 -4.403116820807E-01  3.921042350258E-02 -1.398441122592E-01
H65 -3.870124902589E-01  1.273440324951E-01 -4.310431896541E-01
H66 -4.763996218618E-01 -1.202821828795E-01  3.638305787143E-01
C67  4.404146466120E-01 -4.166246147810E-02  1.334481274830E-01
C68  4.865704109373E-01  6.435275346708E-02 -2.108821189289E-01
C69  3.783198896744E-01 -7.760609535881E-02  2.664777201207E-01
C70  4.262409219453E-01  2.530283023191E-02 -7.923639322073E-02
H71  4.764031734357E-01  1.162112352718E-01 -3.709764351800E-01
H72  3.884117076150E-01 -1.244141472524E-01  4.285238459468E-01
C73  3.074154046780E-01 -5.575345977693E-02  1.926404537847E-01
C74  3.512145057885E-01  4.400133344981E-02 -1.509018041076E-01
H75  2.616694682104E-01 -8.162571420022E-02  2.995822043148E-01
C76  2.921400305518E-01  5.331260775298E-04 -2.280097560100E-02
H77  3.419682857545E-01  8.697267167560E-02 -3.148751850499E-01
C78  2.144485268434E-01  2.952972231774E-03 -1.041716262010E-01
C79  1.934771635850E-01  1.072976664400E-01 -2.827626805137E-01
C80  1.594749229109E-01 -1.025691046876E-01 -6.018973234579E-03
H81  2.340594547035E-01  1.927300687537E-01 -3.604584665858E-01
C82  1.207843840779E-01  1.065615268324E-01 -3.604314546418E-01
H83  1.732870764889E-01 -1.885510330392E-01  1.291886797386E-01
C84  8.668387614343E-02 -1.023535673505E-01 -8.255667854745E-02
H85  1.065877410726E-01  1.894826470905E-01 -4.984195910338E-01
C86  6.682505148991E-02  2.454456099429E-03 -2.594170248710E-01
H87  4.537460436986E-02 -1.845307584773E-01 -3.088833010423E-03
H88  9.714420404424E-03  3.571835620103E-03 -3.163190452213E-01


#===END
