###############################################################################
#
#                    CRYSTAL17 CIF FILE
#
###############################################################################

data_OPT_STEP_0

_symmetry_space_group_name_H-M 'P 1'
_cell_length_a     17.97300000
_cell_length_b      7.35200000
_cell_length_c      6.24500000
_cell_angle_alpha   90.000000
_cell_angle_beta   90.646004
_cell_angle_gamma   90.000000

loop_
_atom_site_label
_atom_site_fract_x
_atom_site_fract_y
_atom_site_fract_z
C1  1.589154104311E-01 -3.981860920235E-01  4.896830535255E-01
H2  1.710636172860E-01 -3.139780471900E-01 -3.723172935306E-01
C3  8.666026880068E-02 -4.010991279268E-01  4.086261159955E-01
C4  2.153453927659E-01 -4.998561346276E-01  3.932226220337E-01
H5  4.397767485822E-02 -3.227629633388E-01  4.874516176015E-01
C6  6.898208068619E-02  4.956114657085E-01  2.288576351142E-01
C7  1.966122894347E-01  3.982453612418E-01  2.107783700901E-01
C8  2.924156022088E-01 -4.977454417413E-01  4.789859817263E-01
H9  1.214545426648E-02  4.912439658536E-01  1.696599309217E-01
C10  1.245827659566E-01  3.966467598116E-01  1.284361152911E-01
H11  2.383496289067E-01  3.159947389302E-01  1.336711107405E-01
C12  3.516049438485E-01  4.576278627960E-01  3.522445137955E-01
C13  3.073727182319E-01 -4.424439091445E-01 -3.050594727921E-01
H14  1.120789865882E-01  3.157347096450E-01 -1.212917021939E-02
H15  3.427167758108E-01  4.156682029577E-01  1.878619642157E-01
C16  4.263769126320E-01  4.740747758493E-01  4.250060952896E-01
H17  2.615015156322E-01 -4.144565105645E-01 -1.992950383876E-01
C18  3.782793445670E-01 -4.239273224068E-01 -2.293926422364E-01
C19  4.863093995780E-01  4.357614809996E-01  2.918352111706E-01
C20  4.405401293259E-01 -4.610610623656E-01 -3.615080854960E-01
H21  3.882177217061E-01 -3.775935441183E-01 -6.707777211692E-02
H22  4.756776222636E-01  3.853724436593E-01  1.312987075160E-01
C23 -4.405401293259E-01  4.610610623656E-01  3.615080854960E-01
C24 -4.863093995780E-01 -4.357614809996E-01 -2.918352111706E-01
C25 -3.782793445670E-01  4.239273224068E-01  2.293926422364E-01
C26 -4.263769126320E-01 -4.740747758493E-01 -4.250060952896E-01
H27 -4.756776222636E-01 -3.853724436593E-01 -1.312987075160E-01
H28 -3.882177217061E-01  3.775935441183E-01  6.707777211692E-02
C29 -3.073727182319E-01  4.424439091445E-01  3.050594727921E-01
C30 -3.516049438485E-01 -4.576278627960E-01 -3.522445137955E-01
H31 -2.615015156322E-01  4.144565105645E-01  1.992950383876E-01
C32 -2.924156022088E-01  4.977454417413E-01 -4.789859817263E-01
H33 -3.427167758108E-01 -4.156682029577E-01 -1.878619642157E-01
C34 -2.153453927659E-01  4.998561346276E-01 -3.932226220337E-01
C35 -1.966122894347E-01 -3.982453612418E-01 -2.107783700901E-01
C36 -1.589154104311E-01  3.981860920235E-01 -4.896830535255E-01
H37 -2.383496289067E-01 -3.159947389302E-01 -1.336711107405E-01
C38 -1.245827659566E-01 -3.966467598116E-01 -1.284361152911E-01
H39 -1.710636172860E-01  3.139780471900E-01  3.723172935306E-01
C40 -8.666026880068E-02  4.010991279268E-01 -4.086261159955E-01
H41 -1.120789865882E-01 -3.157347096450E-01  1.212917021939E-02
C42 -6.898208068619E-02 -4.956114657085E-01 -2.288576351142E-01
H43 -4.397767485822E-02  3.227629633388E-01 -4.874516176015E-01
H44 -1.214545426648E-02 -4.912439658536E-01 -1.696599309217E-01
C45 -1.582225774280E-01  9.594935678060E-02  2.280051727595E-03
H46 -1.715843122269E-01  1.787330305681E-01 -1.358438837226E-01
C47 -8.514004502012E-02  9.404025002421E-02  7.619718094487E-02
C48 -2.139645723445E-01 -2.565884236670E-03  1.066606861674E-01
H49 -4.356424199145E-02  1.719521319871E-01 -7.523932627214E-03
C50 -6.537891874332E-02 -6.132104544478E-03  2.568006314757E-01
C51 -1.931304860076E-01 -1.010711594094E-01  2.899538543802E-01
C52 -2.918289523733E-01  7.944647744832E-04  2.538645918138E-02
H53 -8.105049932537E-03 -8.556909450762E-03  3.122335067928E-01
C54 -1.200163512580E-01 -1.026685481650E-01  3.644970538422E-01
H55 -2.341124076938E-01 -1.802243858372E-01  3.745417600323E-01
C56 -3.512819390744E-01 -4.619153087840E-02  1.504349764923E-01
C57 -3.069714786872E-01  6.034334232291E-02 -1.890610113328E-01
H58 -1.061346914989E-01 -1.814421050367E-01 -4.940534192005E-01
H59 -3.426823433436E-01 -9.260288059236E-02  3.134094388590E-01
C60 -4.261845705234E-01 -2.751798111834E-02  7.691199526772E-02
H61 -2.612372276073E-01  8.922811454842E-02 -2.947719581384E-01
C62 -3.776839288534E-01  8.109125073735E-02 -2.649181990415E-01
C63 -4.868417292692E-01 -6.863509472729E-02  2.063354466720E-01
C64 -4.401861993669E-01  4.193394734630E-02 -1.348003252390E-01
H65 -3.872064761679E-01  1.293517238659E-01 -4.266448077186E-01
H66 -4.771251730340E-01 -1.218658618105E-01  3.661057214094E-01
C67  4.401861993669E-01 -4.193394734630E-02  1.348003252390E-01
C68  4.868417292692E-01  6.863509472729E-02 -2.063354466720E-01
C69  3.776839288534E-01 -8.109125073735E-02  2.649181990415E-01
C70  4.261845705234E-01  2.751798111834E-02 -7.691199526772E-02
H71  4.771251730340E-01  1.218658618105E-01 -3.661057214094E-01
H72  3.872064761679E-01 -1.293517238659E-01  4.266448077186E-01
C73  3.069714786872E-01 -6.034334232291E-02  1.890610113328E-01
C74  3.512819390744E-01  4.619153087840E-02 -1.504349764923E-01
H75  2.612372276073E-01 -8.922811454842E-02  2.947719581384E-01
C76  2.918289523733E-01 -7.944647744832E-04 -2.538645918138E-02
H77  3.426823433436E-01  9.260288059236E-02 -3.134094388590E-01
C78  2.139645723445E-01  2.565884236670E-03 -1.066606861674E-01
C79  1.931304860076E-01  1.010711594094E-01 -2.899538543802E-01
C80  1.582225774280E-01 -9.594935678060E-02 -2.280051727595E-03
H81  2.341124076938E-01  1.802243858372E-01 -3.745417600323E-01
C82  1.200163512580E-01  1.026685481650E-01 -3.644970538422E-01
H83  1.715843122269E-01 -1.787330305681E-01  1.358438837226E-01
C84  8.514004502012E-02 -9.404025002421E-02 -7.619718094487E-02
H85  1.061346914989E-01  1.814421050367E-01  4.940534192005E-01
C86  6.537891874332E-02  6.132104544478E-03 -2.568006314757E-01
H87  4.356424199145E-02 -1.719521319871E-01  7.523932627214E-03
H88  8.105049932537E-03  8.556909450762E-03 -3.122335067928E-01


#===END
