###############################################################################
#
#                    CRYSTAL17 CIF FILE
#
###############################################################################

data_OPT_STEP_0

_symmetry_space_group_name_H-M 'P 1'
_cell_length_a     17.97300000
_cell_length_b      7.35200000
_cell_length_c      6.24500000
_cell_angle_alpha   90.000000
_cell_angle_beta   90.646004
_cell_angle_gamma   90.000000

loop_
_atom_site_label
_atom_site_fract_x
_atom_site_fract_y
_atom_site_fract_z
C1  1.579238569737E-01 -4.050345374226E-01  4.957116441221E-01
H2  1.711568605819E-01 -3.221877172763E-01 -3.661215752189E-01
C3  8.490985148133E-02 -4.082626423604E-01  4.214887377750E-01
C4  2.138825317469E-01  4.969679751591E-01  3.913299087332E-01
H5  4.310987255931E-02 -3.310012190492E-01 -4.949071305465E-01
C6  6.548371449247E-02  4.909662740260E-01  2.410456631712E-01
C7  1.934384641942E-01  3.982381912795E-01  2.078966112969E-01
C8  2.917166983833E-01 -4.997043119977E-01  4.729174392869E-01
H9  8.207620398177E-03  4.872211392035E-01  1.857862896152E-01
C10  1.203803292892E-01  3.954533307837E-01  1.331755518570E-01
H11  2.347278083189E-01  3.197951219169E-01  1.236945002412E-01
C12  3.513110920354E-01  4.567412818403E-01  3.467713268976E-01
C13  3.066755695338E-01 -4.441346859002E-01 -3.109830205254E-01
H14  1.067267055006E-01  3.166507124792E-01 -8.247997538197E-03
H15  3.428556299422E-01  4.134717061610E-01  1.826012710865E-01
C16  4.261596702746E-01  4.741140380068E-01  4.214559482670E-01
H17  2.608391215124E-01 -4.172669717480E-01 -2.049794304542E-01
C18  3.773198388917E-01 -4.240489535477E-01 -2.342733228321E-01
C19  4.870725823270E-01  4.354825629547E-01  2.918649173703E-01
C20  4.400148807113E-01 -4.606922625054E-01 -3.649065272546E-01
H21  3.867212352643E-01 -3.776379682588E-01 -7.175864226081E-02
H22  4.776284959576E-01  3.847611144801E-01  1.308443049919E-01
C23 -4.400148807113E-01  4.606922625054E-01  3.649065272546E-01
C24 -4.870725823270E-01 -4.354825629547E-01 -2.918649173703E-01
C25 -3.773198388917E-01  4.240489535477E-01  2.342733228321E-01
C26 -4.261596702746E-01 -4.741140380068E-01 -4.214559482670E-01
H27 -4.776284959576E-01 -3.847611144801E-01 -1.308443049919E-01
H28 -3.867212352643E-01  3.776379682588E-01  7.175864226081E-02
C29 -3.066755695338E-01  4.441346859002E-01  3.109830205254E-01
C30 -3.513110920354E-01 -4.567412818403E-01 -3.467713268976E-01
H31 -2.608391215124E-01  4.172669717480E-01  2.049794304542E-01
C32 -2.917166983833E-01  4.997043119977E-01 -4.729174392869E-01
H33 -3.428556299422E-01 -4.134717061610E-01 -1.826012710865E-01
C34 -2.138825317469E-01 -4.969679751591E-01 -3.913299087332E-01
C35 -1.934384641942E-01 -3.982381912795E-01 -2.078966112969E-01
C36 -1.579238569737E-01  4.050345374226E-01 -4.957116441221E-01
H37 -2.347278083189E-01 -3.197951219169E-01 -1.236945002412E-01
C38 -1.203803292892E-01 -3.954533307837E-01 -1.331755518570E-01
H39 -1.711568605819E-01  3.221877172763E-01  3.661215752189E-01
C40 -8.490985148133E-02  4.082626423604E-01 -4.214887377750E-01
H41 -1.067267055006E-01 -3.166507124792E-01  8.247997538197E-03
C42 -6.548371449247E-02 -4.909662740260E-01 -2.410456631712E-01
H43 -4.310987255931E-02  3.310012190492E-01  4.949071305465E-01
H44 -8.207620398177E-03 -4.872211392035E-01 -1.857862896152E-01
C45 -1.579238569737E-01  9.496546257739E-02  4.288355877126E-03
H46 -1.711568605819E-01  1.778122827237E-01 -1.338784247819E-01
C47 -8.490985148133E-02  9.173735763955E-02  7.851126222421E-02
C48 -2.138825317469E-01 -3.032024840860E-03  1.086700912660E-01
H49 -4.310987255932E-02  1.689987809508E-01 -5.092869454266E-03
C50 -6.548371449248E-02 -9.033725974021E-03  2.589543368280E-01
C51 -1.934384641942E-01 -1.017618087205E-01  2.921033887023E-01
C52 -2.917166983833E-01  2.956880023122E-04  2.708256071230E-02
H53 -8.207620398180E-03 -1.277886079652E-02  3.142137103840E-01
C54 -1.203803292892E-01 -1.045466692163E-01  3.668244481422E-01
H55 -2.347278083189E-01 -1.802048780831E-01  3.763054997580E-01
C56 -3.513110920354E-01 -4.325871815968E-02  1.532286731016E-01
C57 -3.066755695338E-01  5.586531409984E-02 -1.890169794754E-01
H58 -1.067267055006E-01 -1.833492875208E-01 -4.917520024626E-01
H59 -3.428556299422E-01 -8.652829383896E-02  3.173987289127E-01
C60 -4.261596702746E-01 -2.588596199320E-02  7.854405173220E-02
H61 -2.608391215124E-01  8.273302825204E-02 -2.950205695466E-01
C62 -3.773198388917E-01  7.595104645226E-02 -2.657266771687E-01
C63 -4.870725823270E-01 -6.451743704529E-02  2.081350826289E-01
C64 -4.400148807113E-01  3.930773749456E-02 -1.350934727462E-01
H65 -3.867212352643E-01  1.223620317412E-01 -4.282413577400E-01
H66 -4.776284959576E-01 -1.152388855199E-01  3.691556950073E-01
C67  4.400148807113E-01 -3.930773749456E-02  1.350934727446E-01
C68  4.870725823270E-01  6.451743704529E-02 -2.081350826306E-01
C69  3.773198388917E-01 -7.595104645226E-02  2.657266771671E-01
C70  4.261596702746E-01  2.588596199320E-02 -7.854405173380E-02
H71  4.776284959576E-01  1.152388855199E-01 -3.691556950089E-01
H72  3.867212352643E-01 -1.223620317412E-01  4.282413577384E-01
C73  3.066755695338E-01 -5.586531409984E-02  1.890169794738E-01
C74  3.513110920354E-01  4.325871815968E-02 -1.532286731032E-01
H75  2.608391215124E-01 -8.273302825204E-02  2.950205695450E-01
C76  2.917166983832E-01 -2.956880023125E-04 -2.708256071391E-02
H77  3.428556299422E-01  8.652829383896E-02 -3.173987289143E-01
C78  2.138825317469E-01  3.032024840859E-03 -1.086700912676E-01
C79  1.934384641942E-01  1.017618087205E-01 -2.921033887039E-01
C80  1.579238569737E-01 -9.496546257739E-02 -4.288355878727E-03
H81  2.347278083189E-01  1.802048780831E-01 -3.763054997596E-01
C82  1.203803292892E-01  1.045466692163E-01 -3.668244481438E-01
H83  1.711568605819E-01 -1.778122827237E-01  1.338784247803E-01
C84  8.490985148133E-02 -9.173735763955E-02 -7.851126222581E-02
H85  1.067267055006E-01  1.833492875208E-01  4.917520024610E-01
C86  6.548371449247E-02  9.033725974021E-03 -2.589543368296E-01
H87  4.310987255931E-02 -1.689987809508E-01  5.092869452665E-03
H88  8.207620398174E-03  1.277886079652E-02 -3.142137103856E-01


#===END
