###############################################################################
#
#                    CRYSTAL17 CIF FILE
#
###############################################################################

data_OPT_STEP_0

_symmetry_space_group_name_H-M 'P 1'
_cell_length_a     17.97300000
_cell_length_b      7.35200000
_cell_length_c      6.24500000
_cell_angle_alpha   90.000000
_cell_angle_beta   90.646004
_cell_angle_gamma   90.000000

loop_
_atom_site_label
_atom_site_fract_x
_atom_site_fract_y
_atom_site_fract_z
C1  1.595224719970E-01 -3.977232839487E-01  4.921998114066E-01
H2  1.724298936861E-01 -3.128291068823E-01 -3.710270864282E-01
C3  8.642292314876E-02 -4.046650952437E-01  4.183624072494E-01
C4  2.155985316889E-01 -4.972687070521E-01  3.911516832542E-01
H5  4.410639471144E-02 -3.276171038981E-01 -4.997969657430E-01
C6  6.741807641113E-02  4.902303542209E-01  2.410218576418E-01
C7  1.958897669554E-01  4.023691449301E-01  2.084505866026E-01
C8  2.927062124181E-01 -4.973609297708E-01  4.763617304365E-01
H9  1.002128954975E-02  4.828595098086E-01  1.867367865100E-01
C10  1.228757362870E-01  3.959754170174E-01  1.340095528310E-01
H11  2.374564432762E-01  3.236330064684E-01  1.258418119915E-01
C12  3.518839491869E-01  4.526620690815E-01  3.523015873865E-01
C13  3.074281803319E-01 -4.410315720063E-01 -3.079139132726E-01
H14  1.095361661340E-01  3.148861952911E-01 -5.910449463683E-03
H15  3.432709721930E-01  4.074552507892E-01  1.889909020114E-01
C16  4.265263122764E-01  4.699374937531E-01  4.258204875361E-01
H17  2.614795069175E-01 -4.113137034596E-01 -2.031767092475E-01
C18  3.781439532542E-01 -4.240999993785E-01 -2.306657407747E-01
C19  4.866051960935E-01  4.320325378078E-01  2.932227184114E-01
C20  4.404614319995E-01 -4.617272981862E-01 -3.620499080412E-01
H21  3.878566067173E-01 -3.774969682873E-01 -6.835707452094E-02
H22  4.762875989640E-01  3.794548423852E-01  1.334791585753E-01
C23 -4.404614319995E-01  4.617272981862E-01  3.620499080412E-01
C24 -4.866051960935E-01 -4.320325378078E-01 -2.932227184114E-01
C25 -3.781439532542E-01  4.240999993785E-01  2.306657407747E-01
C26 -4.265263122764E-01 -4.699374937531E-01 -4.258204875361E-01
H27 -4.762875989640E-01 -3.794548423852E-01 -1.334791585753E-01
H28 -3.878566067173E-01  3.774969682873E-01  6.835707452094E-02
C29 -3.074281803319E-01  4.410315720063E-01  3.079139132726E-01
C30 -3.518839491869E-01 -4.526620690815E-01 -3.523015873865E-01
H31 -2.614795069175E-01  4.113137034596E-01  2.031767092475E-01
C32 -2.927062124181E-01  4.973609297708E-01 -4.763617304365E-01
H33 -3.432709721930E-01 -4.074552507892E-01 -1.889909020114E-01
C34 -2.155985316889E-01  4.972687070521E-01 -3.911516832542E-01
C35 -1.958897669554E-01 -4.023691449301E-01 -2.084505866026E-01
C36 -1.595224719970E-01  3.977232839487E-01 -4.921998114066E-01
H37 -2.374564432762E-01 -3.236330064684E-01 -1.258418119915E-01
C38 -1.228757362870E-01 -3.959754170174E-01 -1.340095528310E-01
H39 -1.724298936861E-01  3.128291068823E-01  3.710270864282E-01
C40 -8.642292314876E-02  4.046650952437E-01 -4.183624072494E-01
H41 -1.095361661340E-01 -3.148861952911E-01  5.910449463683E-03
C42 -6.741807641113E-02 -4.902303542209E-01 -2.410218576418E-01
H43 -4.410639471144E-02  3.276171038981E-01  4.997969657430E-01
H44 -1.002128954975E-02 -4.828595098086E-01 -1.867367865100E-01
C45 -1.576155158621E-01  9.548654870579E-02  4.796809608712E-03
H46 -1.702180358267E-01  1.775840902605E-01 -1.345536766202E-01
C47 -8.537739067199E-02  9.760621734113E-02  8.593347219880E-02
C48 -2.137114334214E-01 -5.153311812160E-03  1.045897473879E-01
H49 -4.343552213823E-02  1.768062725464E-01  5.227484028274E-03
C50 -6.694292301838E-02 -7.509930568553E-04  2.689648540032E-01
C51 -1.938530084870E-01 -1.051949430977E-01  2.876260708927E-01
C52 -2.915383421639E-01  4.099528039990E-04  2.276220789157E-02
H53 -1.022921464927E-02 -1.724534057400E-04  3.293103623811E-01
C54 -1.217233809277E-01 -1.019972053708E-01  3.700704913821E-01
H55 -2.350055933243E-01 -1.878626533754E-01  3.667124612833E-01
C56 -3.510029337360E-01 -4.122573716390E-02  1.504920500833E-01
C57 -3.069160165873E-01  5.893100518471E-02 -1.919154518133E-01
H58 -1.086775119530E-01 -1.805935906828E-01 -4.878346984448E-01
H59 -3.421281469615E-01 -8.438992842383E-02  3.145383766548E-01
C60 -4.260351708791E-01 -2.338069902217E-02  7.772638751423E-02
H61 -2.612592363221E-01  8.608530744355E-02 -2.986536289982E-01
C62 -3.778193201662E-01  8.126392770906E-02 -2.661912975797E-01
C63 -4.865459327537E-01 -6.490615153550E-02  2.077229539127E-01
C64 -4.402648966932E-01  4.260018316689E-02 -1.353421477843E-01
H65 -3.875675911566E-01  1.292551480348E-01 -4.279241101226E-01
H66 -4.765151963336E-01 -1.159482605365E-01  3.682861724688E-01
C67  4.402648966932E-01 -4.260018316689E-02  1.353421477843E-01
C68  4.865459327537E-01  6.490615153550E-02 -2.077229539127E-01
C69  3.778193201662E-01 -8.126392770906E-02  2.661912975797E-01
C70  4.260351708791E-01  2.338069902217E-02 -7.772638751423E-02
H71  4.765151963336E-01  1.159482605365E-01 -3.682861724688E-01
H72  3.875675911566E-01 -1.292551480348E-01  4.279241101226E-01
C73  3.069160165873E-01 -5.893100518471E-02  1.919154518133E-01
C74  3.510029337360E-01  4.122573716390E-02 -1.504920500833E-01
H75  2.612592363221E-01 -8.608530744355E-02  2.986536289982E-01
C76  2.915383421639E-01 -4.099528039990E-04 -2.276220789157E-02
H77  3.421281469615E-01  8.438992842383E-02 -3.145383766548E-01
C78  2.137114334214E-01  5.153311812160E-03 -1.045897473879E-01
C79  1.938530084870E-01  1.051949430977E-01 -2.876260708927E-01
C80  1.576155158621E-01 -9.548654870579E-02 -4.796809608712E-03
H81  2.350055933243E-01  1.878626533754E-01 -3.667124612833E-01
C82  1.217233809277E-01  1.019972053708E-01 -3.700704913821E-01
H83  1.702180358267E-01 -1.775840902605E-01  1.345536766202E-01
C84  8.537739067199E-02 -9.760621734113E-02 -8.593347219880E-02
H85  1.086775119530E-01  1.805935906828E-01  4.878346984448E-01
C86  6.694292301838E-02  7.509930568553E-04 -2.689648540032E-01
H87  4.343552213823E-02 -1.768062725464E-01 -5.227484028274E-03
H88  1.022921464927E-02  1.724534057400E-04 -3.293103623811E-01


#===END
