###############################################################################
#
#                    CRYSTAL17 CIF FILE
#
###############################################################################

data_OPT_STEP_0

_symmetry_space_group_name_H-M 'P 1'
_cell_length_a     17.97300000
_cell_length_b      7.35200000
_cell_length_c      6.24500000
_cell_angle_alpha   90.000000
_cell_angle_beta   90.646004
_cell_angle_gamma   90.000000

loop_
_atom_site_label
_atom_site_fract_x
_atom_site_fract_y
_atom_site_fract_z
C1  1.582001941476E-01 -4.019163786017E-01  4.952305621432E-01
H2  1.710010437049E-01 -3.186844368765E-01 -3.664895029873E-01
C3  8.538149377543E-02 -4.057229230797E-01  4.190236793466E-01
C4  2.144527765182E-01  4.999323668381E-01  3.929719613078E-01
H5  4.315121600325E-02 -3.285963654944E-01 -4.989034503680E-01
C6  6.665139193677E-02  4.928047995337E-01  2.385808838977E-01
C7  1.946876978117E-01  4.000905687319E-01  2.098324729806E-01
C8  2.920197718553E-01 -4.967959167314E-01  4.756974530382E-01
H9  9.514345500324E-03  4.885436717199E-01  1.820136346509E-01
C10  1.219193932448E-01  3.968504467938E-01  1.328891280218E-01
H11  2.362125277616E-01  3.205363366798E-01  1.280462586328E-01
C12  3.514078401719E-01  4.623690579935E-01  3.476531916817E-01
C13  3.070118774160E-01 -4.448767845018E-01 -3.070549472783E-01
H14  1.087111822552E-01  3.170921501412E-01 -8.206146144214E-03
H15  3.425986699568E-01  4.228861362806E-01  1.823149067756E-01
C16  4.262512889503E-01  4.772595285967E-01  4.218442443531E-01
H17  2.611558387648E-01 -4.189169259319E-01 -2.005490158705E-01
C18  3.778311948566E-01 -4.269820730162E-01 -2.305946305904E-01
C19  4.866515842503E-01  4.404110659246E-01  2.897491376104E-01
C20  4.402726372661E-01 -4.625350559992E-01 -3.625132534906E-01
H21  3.875516340867E-01 -3.824141638589E-01 -6.746606411499E-02
H22  4.765794992556E-01  3.927538464595E-01  1.277559258525E-01
C23 -4.402726372661E-01  4.625350559992E-01  3.625132534906E-01
C24 -4.866515842503E-01 -4.404110659246E-01 -2.897491376104E-01
C25 -3.778311948566E-01  4.269820730162E-01  2.305946305904E-01
C26 -4.262512889503E-01 -4.772595285967E-01 -4.218442443531E-01
H27 -4.765794992556E-01 -3.927538464595E-01 -1.277559258525E-01
H28 -3.875516340867E-01  3.824141638590E-01  6.746606411499E-02
C29 -3.070118774160E-01  4.448767845018E-01  3.070549472783E-01
C30 -3.514078401719E-01 -4.623690579935E-01 -3.476531916817E-01
H31 -2.611558387648E-01  4.189169259319E-01  2.005490158705E-01
C32 -2.920197718553E-01  4.967959167314E-01 -4.756974530382E-01
H33 -3.425986699568E-01 -4.228861362806E-01 -1.823149067756E-01
C34 -2.144527765182E-01 -4.999323668381E-01 -3.929719613078E-01
C35 -1.946876978117E-01 -4.000905687319E-01 -2.098324729806E-01
C36 -1.582001941476E-01  4.019163786017E-01 -4.952305621432E-01
H37 -2.362125277616E-01 -3.205363366798E-01 -1.280462586328E-01
C38 -1.219193932448E-01 -3.968504467938E-01 -1.328891280218E-01
H39 -1.710010437049E-01  3.186844368765E-01  3.664895029873E-01
C40 -8.538149377543E-02  4.057229230797E-01 -4.190236793466E-01
H41 -1.087111822552E-01 -3.170921501412E-01  8.206146144214E-03
C42 -6.665139193677E-02 -4.928047995337E-01 -2.385808838977E-01
H43 -4.315121600325E-02  3.285963654944E-01  4.989034503680E-01
H44 -9.514345500324E-03 -4.885436717199E-01 -1.820136346509E-01
C45 -1.589377937115E-01  9.967964335881E-02  7.827560345303E-03
H46 -1.716468858079E-01  1.834394202546E-01 -1.300160931793E-01
C47 -8.641882004537E-02  9.866404517709E-02  8.659474429603E-02
C48 -2.148571885922E-01 -2.354385702394E-03  1.064100254416E-01
H49 -4.439070084642E-02  1.777855341427E-01  6.120999403208E-03
C50 -6.770960749274E-02 -3.325438369695E-03  2.665238802591E-01
C51 -1.950550776306E-01 -1.029163668995E-01  2.890079572707E-01
C52 -2.922247827267E-01 -1.550602354461E-04  2.209793049331E-02
H53 -1.073615869869E-02 -5.856615317057E-03  3.245872105221E-01
C54 -1.226797239698E-01 -1.028722351472E-01  3.689500665729E-01
H55 -2.362495088388E-01 -1.847659835868E-01  3.689169079247E-01
C56 -3.514790427510E-01 -5.093272607590E-02  1.458436543785E-01
C57 -3.073323195032E-01  6.277621768022E-02 -1.910564858190E-01
H58 -1.095024958318E-01 -1.827995455329E-01 -4.901303951254E-01
H59 -3.428004491976E-01 -9.982081391526E-02  3.078623814189E-01
C60 -4.263101942051E-01 -3.070273386575E-02  7.375014433117E-02
H61 -2.615829044748E-01  9.368852991581E-02 -2.960259356212E-01
C62 -3.781320785638E-01  8.414600134671E-02 -2.661201873955E-01
C63 -4.864995445969E-01 -7.328467965234E-02  2.042493731118E-01
C64 -4.404536914266E-01  4.340794097987E-02 -1.358054932337E-01
H65 -3.878725637872E-01  1.341723436065E-01 -4.270330997166E-01
H66 -4.762232960419E-01 -1.292472646107E-01  3.625629397459E-01
C67  4.404536914266E-01 -4.340794097987E-02  1.358054932337E-01
C68  4.864995445969E-01  7.328467965234E-02 -2.042493731118E-01
C69  3.781320785638E-01 -8.414600134671E-02  2.661201873955E-01
C70  4.263101942051E-01  3.070273386575E-02 -7.375014433117E-02
H71  4.762232960419E-01  1.292472646107E-01 -3.625629397459E-01
H72  3.878725637872E-01 -1.341723436065E-01  4.270330997166E-01
C73  3.073323195032E-01 -6.277621768022E-02  1.910564858190E-01
C74  3.514790427510E-01  5.093272607590E-02 -1.458436543785E-01
H75  2.615829044748E-01 -9.368852991581E-02  2.960259356212E-01
C76  2.922247827267E-01  1.550602354461E-04 -2.209793049331E-02
H77  3.428004491976E-01  9.982081391526E-02 -3.078623814189E-01
C78  2.148571885922E-01  2.354385702394E-03 -1.064100254416E-01
C79  1.950550776306E-01  1.029163668995E-01 -2.890079572707E-01
C80  1.589377937115E-01 -9.967964335881E-02 -7.827560345303E-03
H81  2.362495088388E-01  1.847659835868E-01 -3.689169079247E-01
C82  1.226797239698E-01  1.028722351472E-01 -3.689500665729E-01
H83  1.716468858079E-01 -1.834394202546E-01  1.300160931793E-01
C84  8.641882004537E-02 -9.866404517709E-02 -8.659474429603E-02
H85  1.095024958318E-01  1.827995455329E-01  4.901303951254E-01
C86  6.770960749274E-02  3.325438369695E-03 -2.665238802591E-01
H87  4.439070084642E-02 -1.777855341427E-01 -6.120999403208E-03
H88  1.073615869869E-02  5.856615317057E-03 -3.245872105221E-01


#===END
