###############################################################################
#
#                    CRYSTAL17 CIF FILE
#
###############################################################################

data_OPT_STEP_0

_symmetry_space_group_name_H-M 'P 1'
_cell_length_a     17.97300000
_cell_length_b      7.35200000
_cell_length_c      6.24500000
_cell_angle_alpha   90.000000
_cell_angle_beta   90.646004
_cell_angle_gamma   90.000000

loop_
_atom_site_label
_atom_site_fract_x
_atom_site_fract_y
_atom_site_fract_z
C1  1.580155947293E-01 -4.069261983870E-01  4.942741946579E-01
H2  1.700246376406E-01 -3.233913748656E-01 -3.671080831072E-01
C3  8.567565771181E-02 -4.105138129935E-01  4.142875591418E-01
C4  2.147636728846E-01  4.942674833814E-01  3.949869058935E-01
H5  4.299021328073E-02 -3.331323728501E-01  4.942020090260E-01
C6  6.794890278836E-02  4.878275592155E-01  2.332285768057E-01
C7  1.959369256984E-01  3.939048923946E-01  2.113600073085E-01
C8  2.921420850402E-01  4.987442187473E-01  4.791849552107E-01
H9  1.110868805275E-02  4.838256877432E-01  1.740344073585E-01
C10  1.236906894051E-01  3.910820865264E-01  1.306163796944E-01
H11  2.378183127349E-01  3.142248757277E-01  1.314628517919E-01
C12  3.514114882998E-01  4.515149036489E-01  3.538524867074E-01
C13  3.073338632475E-01 -4.406570125828E-01 -3.066506187166E-01
H14  1.112016680153E-01  3.115376099694E-01 -1.100391532303E-02
H15  3.427209312721E-01  4.050209245435E-01  1.909917257803E-01
C16  4.262491725855E-01  4.710301365896E-01  4.258854118721E-01
H17  2.616223912919E-01 -4.111757596892E-01 -2.010052873054E-01
C18  3.781955685076E-01 -4.194370530122E-01 -2.317932377753E-01
C19  4.863776906275E-01  4.303533640516E-01  2.943261482918E-01
C20  4.405179935290E-01 -4.585085001821E-01 -3.631019160067E-01
H21  3.880477859828E-01 -3.704509202922E-01 -7.053310103227E-02
H22  4.759858547071E-01  3.765626814329E-01  1.351709075025E-01
C23 -4.405179935290E-01  4.585085001821E-01  3.631019160067E-01
C24 -4.863776906275E-01 -4.303533640516E-01 -2.943261482918E-01
C25 -3.781955685076E-01  4.194370530122E-01  2.317932377753E-01
C26 -4.262491725855E-01 -4.710301365896E-01 -4.258854118721E-01
H27 -4.759858547071E-01 -3.765626814329E-01 -1.351709075025E-01
H28 -3.880477859828E-01  3.704509202922E-01  7.053310103227E-02
C29 -3.073338632475E-01  4.406570125828E-01  3.066506187166E-01
C30 -3.514114882998E-01 -4.515149036489E-01 -3.538524867074E-01
H31 -2.616223912919E-01  4.111757596892E-01  2.010052873054E-01
C32 -2.921420850402E-01 -4.987442187473E-01 -4.791849552107E-01
H33 -3.427209312721E-01 -4.050209245435E-01 -1.909917257803E-01
C34 -2.147636728846E-01 -4.942674833814E-01 -3.949869058935E-01
C35 -1.959369256984E-01 -3.939048923946E-01 -2.113600073085E-01
C36 -1.580155947293E-01  4.069261983870E-01 -4.942741946579E-01
H37 -2.378183127349E-01 -3.142248757277E-01 -1.314628517919E-01
C38 -1.236906894051E-01 -3.910820865264E-01 -1.306163796944E-01
H39 -1.700246376406E-01  3.233913748656E-01  3.671080831072E-01
C40 -8.567565771181E-02  4.105138129935E-01 -4.142875591418E-01
H41 -1.112016680153E-01 -3.115376099694E-01  1.100391532303E-02
C42 -6.794890278836E-02 -4.878275592155E-01 -2.332285768057E-01
H43 -4.299021328073E-02  3.331323728501E-01 -4.942020090260E-01
H44 -1.110868805275E-02 -4.838256877432E-01 -1.740344073585E-01
C45 -1.580155947293E-01  9.307380161303E-02  5.725805341294E-03
H46 -1.700246376406E-01  1.766086251344E-01 -1.328919168936E-01
C47 -8.567565771181E-02  8.948618700653E-02  8.571244085744E-02
C48 -2.147636728846E-01 -5.732516618607E-03  1.050130941057E-01
H49 -4.299021328073E-02  1.668676271499E-01  5.797990973198E-03
C50 -6.794890278837E-02 -1.217244078455E-02  2.667714231935E-01
C51 -1.959369256984E-01 -1.060951076054E-01  2.886399926907E-01
C52 -2.921420850402E-01 -1.255781252720E-03  2.081504478852E-02
H53 -1.110868805275E-02 -1.617431225680E-02  3.259655926407E-01
C54 -1.236906894051E-01 -1.089179134736E-01  3.693836203048E-01
H55 -2.378183127349E-01 -1.857751242723E-01  3.685371482073E-01
C56 -3.514114882998E-01 -4.848509635106E-02  1.461475132918E-01
C57 -3.073338632475E-01  5.934298741717E-02 -1.933493812842E-01
H58 -1.112016680153E-01 -1.884623900306E-01 -4.889960846778E-01
H59 -3.427209312721E-01 -9.497907545647E-02  3.090082742189E-01
C60 -4.262491725855E-01 -2.896986341036E-02  7.411458812712E-02
H61 -2.616223912919E-01  8.882424031080E-02 -2.989947126954E-01
C62 -3.781955685076E-01  8.056294698776E-02 -2.682067622256E-01
C63 -4.863776906275E-01 -6.964663594845E-02  2.056738517074E-01
C64 -4.405179935290E-01  4.149149981787E-02 -1.368980839941E-01
H65 -3.880477859828E-01  1.295490797078E-01 -4.294668989685E-01
H66 -4.759858547071E-01 -1.234373185671E-01  3.648290924967E-01
C67  4.405179935290E-01 -4.149149981787E-02  1.368980839925E-01
C68  4.863776906275E-01  6.964663594845E-02 -2.056738517090E-01
C69  3.781955685076E-01 -8.056294698776E-02  2.682067622239E-01
C70  4.262491725855E-01  2.896986341036E-02 -7.411458812872E-02
H71  4.759858547071E-01  1.234373185671E-01 -3.648290924983E-01
H72  3.880477859828E-01 -1.295490797078E-01  4.294668989669E-01
C73  3.073338632475E-01 -5.934298741717E-02  1.933493812826E-01
C74  3.514114882998E-01  4.848509635106E-02 -1.461475132934E-01
H75  2.616223912919E-01 -8.882424031080E-02  2.989947126938E-01
C76  2.921420850402E-01  1.255781252720E-03 -2.081504479012E-02
H77  3.427209312721E-01  9.497907545647E-02 -3.090082742205E-01
C78  2.147636728846E-01  5.732516618607E-03 -1.050130941073E-01
C79  1.959369256984E-01  1.060951076054E-01 -2.886399926923E-01
C80  1.580155947293E-01 -9.307380161303E-02 -5.725805342895E-03
H81  2.378183127349E-01  1.857751242723E-01 -3.685371482089E-01
C82  1.236906894051E-01  1.089179134736E-01 -3.693836203064E-01
H83  1.700246376406E-01 -1.766086251344E-01  1.328919168920E-01
C84  8.567565771180E-02 -8.948618700653E-02 -8.571244085904E-02
H85  1.112016680153E-01  1.884623900306E-01  4.889960846762E-01
C86  6.794890278836E-02  1.217244078455E-02 -2.667714231951E-01
H87  4.299021328073E-02 -1.668676271499E-01 -5.797990974800E-03
H88  1.110868805274E-02  1.617431225680E-02 -3.259655926423E-01


#===END
