###############################################################################
#
#                    CRYSTAL17 CIF FILE
#
###############################################################################

data_OPT_STEP_0

_symmetry_space_group_name_H-M 'P 1'
_cell_length_a     17.97300000
_cell_length_b      7.35200000
_cell_length_c      6.24500000
_cell_angle_alpha   90.000000
_cell_angle_beta   90.646004
_cell_angle_gamma   90.000000

loop_
_atom_site_label
_atom_site_fract_x
_atom_site_fract_y
_atom_site_fract_z
C1  1.587521397926E-01 -3.953981298097E-01  4.801640054357E-01
H2  1.719060583542E-01 -3.075041645483E-01 -3.860435982040E-01
C3  8.588969928255E-02 -4.015017886130E-01  4.047127252868E-01
C4  2.146354921721E-01 -4.993167805894E-01  3.836084034160E-01
H5  4.381876204670E-02 -3.215926934044E-01  4.837998222274E-01
C6  6.681270650236E-02  4.897717311628E-01  2.304747321624E-01
C7  1.946285302134E-01  3.941908090955E-01  2.057032183872E-01
C8  2.920374978633E-01 -4.955658000766E-01  4.679622621009E-01
H9  9.515532135001E-03  4.829807676627E-01  1.757351150367E-01
C10  1.217936818156E-01  3.891851236273E-01  1.293108081797E-01
H11  2.359471630480E-01  3.108046960520E-01  1.283681221223E-01
C12  3.517764970362E-01  4.574203624758E-01  3.443545486818E-01
C13  3.063883910953E-01 -4.370510183153E-01 -3.166955384066E-01
H14  1.081983486903E-01  3.041017555241E-01 -7.085211586032E-03
H15  3.436417510191E-01  4.123470964867E-01  1.807033029802E-01
C16  4.263762251392E-01  4.743182873573E-01  4.206242200156E-01
H17  2.601941397893E-01 -4.081987325211E-01 -2.127320176876E-01
C18  3.768586854343E-01 -4.177349111866E-01 -2.382750860377E-01
C19  4.874093462928E-01  4.325388093570E-01  2.928830016107E-01
C20  4.398090662154E-01 -4.574683970971E-01 -3.668030526496E-01
H21  3.859384011388E-01 -3.702355819839E-01 -7.610701197569E-02
H22  4.780992928366E-01  3.800102990442E-01  1.325558921374E-01
C23 -4.398090662154E-01  4.574683970971E-01  3.668030526496E-01
C24 -4.874093462928E-01 -4.325388093570E-01 -2.928830016107E-01
C25 -3.768586854343E-01  4.177349111866E-01  2.382750860377E-01
C26 -4.263762251392E-01 -4.743182873573E-01 -4.206242200156E-01
H27 -4.780992928366E-01 -3.800102990442E-01 -1.325558921374E-01
H28 -3.859384011388E-01  3.702355819840E-01  7.610701197569E-02
C29 -3.063883910953E-01  4.370510183153E-01  3.166955384066E-01
C30 -3.517764970362E-01 -4.574203624758E-01 -3.443545486818E-01
H31 -2.601941397893E-01  4.081987325211E-01  2.127320176876E-01
C32 -2.920374978633E-01  4.955658000766E-01 -4.679622621009E-01
H33 -3.436417510191E-01 -4.123470964867E-01 -1.807033029802E-01
C34 -2.146354921721E-01  4.993167805894E-01 -3.836084034160E-01
C35 -1.946285302134E-01 -3.941908090955E-01 -2.057032183872E-01
C36 -1.587521397926E-01  3.953981298097E-01 -4.801640054357E-01
H37 -2.359471630480E-01 -3.108046960520E-01 -1.283681221223E-01
C38 -1.217936818156E-01 -3.891851236273E-01 -1.293108081797E-01
H39 -1.719060583542E-01  3.075041645483E-01  3.860435982040E-01
C40 -8.588969928255E-02  4.015017886130E-01 -4.047127252868E-01
H41 -1.081983486903E-01 -3.041017555241E-01  7.085211586032E-03
C42 -6.681270650236E-02 -4.897717311628E-01 -2.304747321624E-01
H43 -4.381876204670E-02  3.215926934044E-01 -4.837998222274E-01
H44 -9.515532135001E-03 -4.829807676627E-01 -1.757351150367E-01
C45 -1.587521397926E-01  1.046018701903E-01  1.983599456345E-02
H46 -1.719060583542E-01  1.924958354517E-01 -1.139564017968E-01
C47 -8.588969928255E-02  9.849821138697E-02  9.528727471239E-02
C48 -2.146354921721E-01  6.832194106365E-04  1.163915965832E-01
H49 -4.381876204670E-02  1.784073065956E-01  1.620017777180E-02
C50 -6.681270650236E-02 -1.022826883719E-02  2.695252678368E-01
C51 -1.946285302134E-01 -1.058091909045E-01  2.942967816120E-01
C52 -2.920374978633E-01  4.434199923422E-03  3.203773789830E-02
H53 -9.515532135004E-03 -1.701923233732E-02  3.242648849625E-01
C54 -1.217936818156E-01 -1.108148763727E-01  3.706891918195E-01
H55 -2.359471630480E-01 -1.891953039480E-01  3.716318778769E-01
C56 -3.517764970362E-01 -4.257963752421E-02  1.556454513174E-01
C57 -3.063883910953E-01  6.294898168471E-02 -1.833044615942E-01
H58 -1.081983486903E-01 -1.958982444759E-01 -4.929147884148E-01
H59 -3.436417510191E-01 -8.765290351333E-02  3.192966970190E-01
C60 -4.263762251392E-01 -2.568171264268E-02  7.937577998357E-02
H61 -2.601941397893E-01  9.180126747892E-02 -2.872679823132E-01
C62 -3.768586854343E-01  8.226508881338E-02 -2.617249139631E-01
C63 -4.874093462928E-01 -6.746119064295E-02  2.071169983885E-01
C64 -4.398090662154E-01  4.253160290288E-02 -1.331969473512E-01
H65 -3.859384011388E-01  1.297644180160E-01 -4.238929880251E-01
H66 -4.780992928366E-01 -1.199897009558E-01  3.674441078618E-01
C67  4.398090662154E-01 -4.253160290288E-02  1.331969473496E-01
C68  4.874093462928E-01  6.746119064295E-02 -2.071169983901E-01
C69  3.768586854343E-01 -8.226508881338E-02  2.617249139615E-01
C70  4.263762251392E-01  2.568171264268E-02 -7.937577998517E-02
H71  4.780992928366E-01  1.199897009558E-01 -3.674441078634E-01
H72  3.859384011388E-01 -1.297644180161E-01  4.238929880235E-01
C73  3.063883910953E-01 -6.294898168471E-02  1.833044615926E-01
C74  3.517764970362E-01  4.257963752421E-02 -1.556454513190E-01
H75  2.601941397893E-01 -9.180126747892E-02  2.872679823116E-01
C76  2.920374978633E-01 -4.434199923422E-03 -3.203773789990E-02
H77  3.436417510191E-01  8.765290351333E-02 -3.192966970206E-01
C78  2.146354921721E-01 -6.832194106368E-04 -1.163915965848E-01
C79  1.946285302134E-01  1.058091909045E-01 -2.942967816137E-01
C80  1.587521397926E-01 -1.046018701903E-01 -1.983599456505E-02
H81  2.359471630480E-01  1.891953039480E-01 -3.716318778785E-01
C82  1.217936818156E-01  1.108148763727E-01 -3.706891918211E-01
H83  1.719060583542E-01 -1.924958354517E-01  1.139564017952E-01
C84  8.588969928255E-02 -9.849821138697E-02 -9.528727471399E-02
H85  1.081983486903E-01  1.958982444759E-01  4.929147884132E-01
C86  6.681270650236E-02  1.022826883719E-02 -2.695252678384E-01
H87  4.381876204670E-02 -1.784073065956E-01 -1.620017777340E-02
H88  9.515532134998E-03  1.701923233732E-02 -3.242648849641E-01


#===END
