###############################################################################
#
#                    CRYSTAL17 CIF FILE
#
###############################################################################

data_OPT_STEP_0

_symmetry_space_group_name_H-M 'P 1'
_cell_length_a     17.97300000
_cell_length_b      7.35200000
_cell_length_c      6.24500000
_cell_angle_alpha   90.000000
_cell_angle_beta   90.646004
_cell_angle_gamma   90.000000

loop_
_atom_site_label
_atom_site_fract_x
_atom_site_fract_y
_atom_site_fract_z
C1  1.585004650733E-01 -4.081009330453E-01 -4.960204310472E-01
H2  1.714806569732E-01 -3.298838683101E-01 -3.536856910377E-01
C3  8.531505465932E-02 -4.098471325064E-01  4.308771406045E-01
C4  2.146078245639E-01  4.988775818221E-01  3.938102249128E-01
H5  4.337901768788E-02 -3.367001553945E-01 -4.805186872578E-01
C6  6.588725540883E-02  4.962812995604E-01  2.450652677258E-01
C7  1.941508046171E-01  4.073128088234E-01  2.048853792735E-01
C8  2.925372994388E-01 -4.991918907892E-01  4.742079475241E-01
H9  8.418825204740E-03  4.935395114290E-01  1.912569791361E-01
C10  1.210197847070E-01  4.064998858171E-01  1.306796465921E-01
H11  2.354313233908E-01  3.330137514574E-01  1.148503363658E-01
C12  3.516700988261E-01  4.558551403419E-01  3.468581760114E-01
C13  3.080615288908E-01 -4.428558772155E-01 -3.104594666169E-01
H14  1.075420506313E-01  3.335948036753E-01 -1.575046115230E-02
H15  3.426686120521E-01  4.117553598656E-01  1.832900067776E-01
C16  4.267446751355E-01  4.734852870298E-01  4.187806769583E-01
H17  2.626316454200E-01 -4.152325431156E-01 -2.032441935726E-01
C18  3.789314670167E-01 -4.225877441944E-01 -2.360745607014E-01
C19  4.871015314827E-01  4.338206637956E-01  2.873446137260E-01
C20  4.409909356209E-01 -4.596893625692E-01 -3.685731688600E-01
H21  3.890085290878E-01 -3.757297004867E-01 -7.407969693951E-02
H22  4.769456948884E-01  3.819318308122E-01  1.272544644166E-01
C23 -4.397353930717E-01  4.594377524501E-01  3.581345913978E-01
C24 -4.860495973645E-01 -4.333057224767E-01 -2.981551507719E-01
C25 -3.770318064037E-01  4.202483274751E-01  2.283998824943E-01
C26 -4.258168080199E-01 -4.730715077012E-01 -4.293134230628E-01
H27 -4.758571004092E-01 -3.815747510366E-01 -1.379385216892E-01
H28 -3.864156687862E-01  3.725121197658E-01  6.635326745965E-02
C29 -3.062826680284E-01  4.392446896061E-01  3.055389948431E-01
C30 -3.512167840968E-01 -4.555811915756E-01 -3.549513612910E-01
H31 -2.601070978196E-01  4.099958529004E-01  2.012788866775E-01
C32 -2.917072551433E-01  4.977590861776E-01 -4.793915750200E-01
H33 -3.427305071023E-01 -4.113099624997E-01 -1.911625185783E-01
C34 -2.147021405465E-01 -4.987003993137E-01 -3.927517109527E-01
C35 -1.955919708251E-01 -3.898613930090E-01 -2.159391364356E-01
C36 -1.586375227858E-01  3.941358021976E-01 -4.834234328443E-01
H37 -2.370307132097E-01 -3.027566016356E-01 -1.442790143416E-01
C38 -1.235793325077E-01 -3.874783258296E-01 -1.332594148561E-01
H39 -1.711672725397E-01  3.053611483118E-01  3.827877187711E-01
C40 -8.648525916146E-02  3.972117453962E-01 -4.015517944453E-01
H41 -1.106716274558E-01 -3.006978009329E-01  2.325289867347E-03
C42 -6.847374402072E-02 -4.931980616036E-01 -2.269917359120E-01
H43 -4.416289916183E-02  3.141106759573E-01 -4.754942374858E-01
H44 -1.183167899431E-02 -4.891475449739E-01 -1.661694449919E-01
C45 -1.586375227858E-01  1.058641978024E-01  1.657656715488E-02
H46 -1.711672725397E-01  1.946388516882E-01 -1.172122812297E-01
C47 -8.648525916147E-02  1.027882546038E-01  9.844820555394E-02
C48 -2.147021405465E-01 -1.299600686344E-03  1.072482890465E-01
H49 -4.416289916183E-02  1.858893240427E-01  2.450576251345E-02
C50 -6.847374402072E-02 -6.801938396355E-03  2.730082640872E-01
C51 -1.955919708251E-01 -1.101386069910E-01  2.840608635636E-01
C52 -2.917072551433E-01  2.240913822361E-03  2.060842497918E-02
H53 -1.183167899431E-02 -1.085245502612E-02  3.338305550073E-01
C54 -1.235793325077E-01 -1.125216741704E-01  3.667405851431E-01
H55 -2.370307132097E-01 -1.972433983644E-01  3.557209856576E-01
C56 -3.512167840968E-01 -4.441880842437E-02  1.450486387082E-01
C57 -3.062826680284E-01  6.075531039391E-02 -1.944610051577E-01
H58 -1.106716274558E-01 -1.993021990671E-01 -4.976747101335E-01
H59 -3.427305071023E-01 -8.869003750027E-02  3.088374814209E-01
C60 -4.258168080199E-01 -2.692849229883E-02  7.068657693642E-02
H61 -2.601070978196E-01  9.000414709956E-02 -2.987211133233E-01
C62 -3.770318064037E-01  7.975167252489E-02 -2.716001175065E-01
C63 -4.860495973645E-01 -6.669427752326E-02  2.018448492273E-01
C64 -4.397353930717E-01  4.056224754992E-02 -1.418654086030E-01
H65 -3.864156687862E-01  1.274878802342E-01 -4.336467325411E-01
H66 -4.758571004092E-01 -1.184252489634E-01  3.620614783100E-01
C67  4.409909356209E-01 -4.031063743077E-02  1.314268311392E-01
C68  4.871015314826E-01  6.617933620443E-02 -2.126553862748E-01
C69  3.789314670166E-01 -7.741225580563E-02  2.639254392978E-01
C70  4.267446751355E-01  2.651471297021E-02 -8.121932304247E-02
H71  4.769456948884E-01  1.180681691878E-01 -3.727455355842E-01
H72  3.890085290878E-01 -1.242702995133E-01  4.259203030597E-01
C73  3.080615288908E-01 -5.714412278455E-02  1.895405333823E-01
C74  3.516700988261E-01  4.414485965805E-02 -1.531418239894E-01
H75  2.626316454200E-01 -8.476745688439E-02  2.967558064266E-01
C76  2.925372994388E-01 -8.081092108272E-04 -2.579205247673E-02
H77  3.426686120521E-01  8.824464013439E-02 -3.167099932232E-01
C78  2.146078245639E-01  1.122418177911E-03 -1.061897750880E-01
C79  1.941508046171E-01  9.268719117655E-02 -2.951146207273E-01
C80  1.585004650733E-01 -9.189906695471E-02  3.979568952009E-03
H81  2.354313233908E-01  1.669862485426E-01 -3.851496636350E-01
C82  1.210197847070E-01  9.350011418294E-02 -3.693203534087E-01
H83  1.714806569732E-01 -1.701161316899E-01  1.463143089615E-01
C84  8.531505465932E-02 -9.015286749361E-02 -6.912285939625E-02
H85  1.075420506313E-01  1.664051963247E-01  4.842495388469E-01
C86  6.588725540883E-02  3.718700439608E-03 -2.549347322751E-01
H87  4.337901768788E-02 -1.632998446055E-01  1.948131274139E-02
H88  8.418825204737E-03  6.460488571001E-03 -3.087430208647E-01


#===END
