###############################################################################
#
#                    CRYSTAL17 CIF FILE
#
###############################################################################

data_OPT_STEP_0

_symmetry_space_group_name_H-M 'P 1'
_cell_length_a     17.97300000
_cell_length_b      7.35200000
_cell_length_c      6.24500000
_cell_angle_alpha   90.000000
_cell_angle_beta   90.646004
_cell_angle_gamma   90.000000

loop_
_atom_site_label
_atom_site_fract_x
_atom_site_fract_y
_atom_site_fract_z
C1  1.564280354615E-01 -4.021946108753E-01  4.937685667258E-01
H2  1.686171441209E-01 -3.194310875339E-01 -3.670759523724E-01
C3  8.418156479609E-02 -4.024448020584E-01  4.122155455225E-01
C4  2.130075358029E-01  4.973393021915E-01  3.954011774591E-01
H5  4.183061145266E-02 -3.238998552187E-01  4.919175020556E-01
C6  6.602818153898E-02  4.973039171600E-01  2.304557435207E-01
C7  1.934116536541E-01  3.967550534138E-01  2.123609931753E-01
C8  2.909695279415E-01 -4.987601081351E-01  4.784814547259E-01
H9  9.274692300515E-03  4.956890185350E-01  1.706910190588E-01
C10  1.212921657882E-01  3.974143388001E-01  1.298188025802E-01
H11  2.348135330801E-01  3.146498416186E-01  1.336485779857E-01
C12  3.504770184643E-01  4.568688156060E-01  3.519116214559E-01
C13  3.067675751414E-01 -4.408323728617E-01 -3.065620017450E-01
H14  1.086563804341E-01  3.177200790101E-01 -1.177335257829E-02
H15  3.415776393670E-01  4.129827985865E-01  1.881157504205E-01
C16  4.257359488086E-01  4.743976043448E-01  4.240264517084E-01
H17  2.612587430965E-01 -4.118956925426E-01 -1.999257211616E-01
C18  3.778356773504E-01 -4.212503674450E-01 -2.318392497431E-01
C19  4.862500618700E-01  4.348292304471E-01  2.927495642569E-01
C20  4.403657677039E-01 -4.595157305294E-01 -3.630990950432E-01
H21  3.876095303166E-01 -3.739127431140E-01 -6.986506644452E-02
H22  4.760411551148E-01  3.835454068755E-01  1.323520331029E-01
C23 -4.403657677039E-01  4.595157305294E-01  3.630990950432E-01
C24 -4.862500618700E-01 -4.348292304471E-01 -2.927495642569E-01
C25 -3.778356773504E-01  4.212503674450E-01  2.318392497431E-01
C26 -4.257359488086E-01 -4.743976043448E-01 -4.240264517084E-01
H27 -4.760411551148E-01 -3.835454068755E-01 -1.323520331029E-01
H28 -3.876095303166E-01  3.739127431140E-01  6.986506644452E-02
C29 -3.067675751414E-01  4.408323728617E-01  3.065620017450E-01
C30 -3.504770184643E-01 -4.568688156060E-01 -3.519116214559E-01
H31 -2.612587430965E-01  4.118956925426E-01  1.999257211616E-01
C32 -2.909695279415E-01  4.987601081351E-01 -4.784814547259E-01
H33 -3.415776393670E-01 -4.129827985865E-01 -1.881157504205E-01
C34 -2.130075358029E-01 -4.973393021915E-01 -3.954011774591E-01
C35 -1.934116536541E-01 -3.967550534138E-01 -2.123609931753E-01
C36 -1.564280354615E-01  4.021946108753E-01 -4.937685667258E-01
H37 -2.348135330801E-01 -3.146498416186E-01 -1.336485779857E-01
C38 -1.212921657882E-01 -3.974143388001E-01 -1.298188025802E-01
H39 -1.686171441209E-01  3.194310875339E-01  3.670759523724E-01
C40 -8.418156479609E-02  4.024448020584E-01 -4.122155455225E-01
H41 -1.086563804341E-01 -3.177200790101E-01  1.177335257829E-02
C42 -6.602818153898E-02 -4.973039171600E-01 -2.304557435207E-01
H43 -4.183061145266E-02  3.238998552187E-01 -4.919175020556E-01
H44 -9.274692300515E-03 -4.956890185350E-01 -1.706910190588E-01
C45 -1.564280354615E-01  9.780538912473E-02  6.231433273414E-03
H46 -1.686171441209E-01  1.805689124661E-01 -1.329240476284E-01
C47 -8.418156479609E-02  9.755519794165E-02  8.778445447674E-02
C48 -2.130075358029E-01 -2.660697808488E-03  1.045988225401E-01
H49 -4.183061145267E-02  1.761001447813E-01  8.082497943621E-03
C50 -6.602818153898E-02 -2.696082840044E-03  2.695442564785E-01
C51 -1.934116536541E-01 -1.032449465862E-01  2.876390068239E-01
C52 -2.909695279415E-01  1.239891864935E-03  2.151854527327E-02
H53 -9.274692300518E-03 -4.310981465044E-03  3.293089809404E-01
C54 -1.212921657882E-01 -1.025856611999E-01  3.701811974190E-01
H55 -2.348135330801E-01 -1.853501583814E-01  3.663514220134E-01
C56 -3.504770184643E-01 -4.313118439404E-02  1.480883785433E-01
C57 -3.067675751414E-01  5.916762713833E-02 -1.934379982558E-01
H58 -1.086563804341E-01 -1.822799209899E-01 -4.882266474225E-01
H59 -3.415776393670E-01 -8.701720141349E-02  3.118842495787E-01
C60 -4.257359488086E-01 -2.560239565520E-02  7.597354829085E-02
H61 -2.612587430965E-01  8.810430745743E-02 -3.000742788392E-01
C62 -3.778356773504E-01  7.874963255495E-02 -2.681607502578E-01
C63 -4.862500618700E-01 -6.517076955291E-02  2.072504357423E-01
C64 -4.403657677039E-01  4.048426947062E-02 -1.369009049576E-01
H65 -3.876095303166E-01  1.260872568860E-01 -4.301349335563E-01
H66 -4.760411551148E-01 -1.164545931245E-01  3.676479668963E-01
C67  4.403657677039E-01 -4.048426947062E-02  1.369009049560E-01
C68  4.862500618700E-01  6.517076955291E-02 -2.072504357439E-01
C69  3.778356773504E-01 -7.874963255495E-02  2.681607502561E-01
C70  4.257359488086E-01  2.560239565520E-02 -7.597354829245E-02
H71  4.760411551148E-01  1.164545931245E-01 -3.676479668979E-01
H72  3.876095303166E-01 -1.260872568860E-01  4.301349335547E-01
C73  3.067675751414E-01 -5.916762713833E-02  1.934379982542E-01
C74  3.504770184643E-01  4.313118439404E-02 -1.480883785449E-01
H75  2.612587430965E-01 -8.810430745743E-02  3.000742788376E-01
C76  2.909695279415E-01 -1.239891864935E-03 -2.151854527487E-02
H77  3.415776393670E-01  8.701720141349E-02 -3.118842495803E-01
C78  2.130075358029E-01  2.660697808487E-03 -1.045988225417E-01
C79  1.934116536541E-01  1.032449465862E-01 -2.876390068255E-01
C80  1.564280354615E-01 -9.780538912473E-02 -6.231433275015E-03
H81  2.348135330801E-01  1.853501583814E-01 -3.663514220151E-01
C82  1.212921657882E-01  1.025856611999E-01 -3.701811974206E-01
H83  1.686171441209E-01 -1.805689124661E-01  1.329240476268E-01
C84  8.418156479608E-02 -9.755519794165E-02 -8.778445447834E-02
H85  1.086563804341E-01  1.822799209899E-01  4.882266474209E-01
C86  6.602818153898E-02  2.696082840043E-03 -2.695442564801E-01
H87  4.183061145266E-02 -1.761001447813E-01 -8.082497945222E-03
H88  9.274692300512E-03  4.310981465043E-03 -3.293089809420E-01


#===END
