###############################################################################
#
#                    CRYSTAL17 CIF FILE
#
###############################################################################

data_OPT_STEP_0

_symmetry_space_group_name_H-M 'P 1'
_cell_length_a     17.97300000
_cell_length_b      7.35200000
_cell_length_c      6.24500000
_cell_angle_alpha   90.000000
_cell_angle_beta   90.646004
_cell_angle_gamma   90.000000

loop_
_atom_site_label
_atom_site_fract_x
_atom_site_fract_y
_atom_site_fract_z
C1  1.592840492008E-01 -4.011750777114E-01  4.909795232654E-01
H2  1.722052739056E-01 -3.173576186817E-01 -3.713176404766E-01
C3  8.675401848535E-02 -4.027148261362E-01  4.122956649952E-01
C4  2.151307839402E-01  4.968880532061E-01  3.920891623045E-01
H5  4.462828054008E-02 -3.236956218625E-01  4.925658992920E-01
C6  6.811443689546E-02  4.949434508686E-01  2.325230158795E-01
C7  1.955191764499E-01  3.961719231192E-01  2.095385637072E-01
C8  2.923592271319E-01  4.983627056968E-01  4.769242495797E-01
H9  1.108205190912E-02  4.921109197078E-01  1.747751059791E-01
C10  1.231103782720E-01  3.956593920458E-01  1.297431137546E-01
H11  2.368737468659E-01  3.142169617825E-01  1.304558137538E-01
C12  3.517409472928E-01  4.564108740800E-01  3.496762250049E-01
C13  3.070647244835E-01 -4.491128097271E-01 -3.058106102672E-01
H14  1.098975927783E-01  3.153967110699E-01 -1.091242314229E-02
H15  3.430300693222E-01  4.158843794241E-01  1.847006881874E-01
C16  4.264404299512E-01  4.734954867361E-01  4.234802599643E-01
H17  2.610518658265E-01 -4.234580348343E-01 -1.997508092238E-01
C18  3.778024650932E-01 -4.298545311934E-01 -2.294234317132E-01
C19  4.867870358553E-01  4.381085049208E-01  2.907684663177E-01
C20  4.402678061282E-01 -4.640481183113E-01 -3.618226514544E-01
H21  3.874737435617E-01 -3.846400137062E-01 -6.654160549769E-02
H22  4.767178620441E-01  3.891904243158E-01  1.293962718594E-01
C23 -4.402678061282E-01  4.640481183113E-01  3.618226514544E-01
C24 -4.867870358553E-01 -4.381085049208E-01 -2.907684663177E-01
C25 -3.778024650932E-01  4.298545311934E-01  2.294234317132E-01
C26 -4.264404299512E-01 -4.734954867361E-01 -4.234802599643E-01
H27 -4.767178620441E-01 -3.891904243158E-01 -1.293962718594E-01
H28 -3.874737435617E-01  3.846400137062E-01  6.654160549769E-02
C29 -3.070647244835E-01  4.491128097271E-01  3.058106102672E-01
C30 -3.517409472928E-01 -4.564108740800E-01 -3.496762250049E-01
H31 -2.610518658265E-01  4.234580348343E-01  1.997508092238E-01
C32 -2.923592271319E-01 -4.983627056968E-01 -4.769242495797E-01
H33 -3.430300693222E-01 -4.158843794241E-01 -1.847006881874E-01
C34 -2.151307839402E-01 -4.968880532061E-01 -3.920891623045E-01
C35 -1.955191764499E-01 -3.961719231192E-01 -2.095385637072E-01
C36 -1.592840492008E-01  4.011750777114E-01 -4.909795232654E-01
H37 -2.368737468659E-01 -3.142169617825E-01 -1.304558137538E-01
C38 -1.231103782720E-01 -3.956593920458E-01 -1.297431137546E-01
H39 -1.722052739056E-01  3.173576186817E-01  3.713176404766E-01
C40 -8.675401848535E-02  4.027148261362E-01 -4.122956649952E-01
H41 -1.098975927783E-01 -3.153967110699E-01  1.091242314229E-02
C42 -6.811443689546E-02 -4.949434508686E-01 -2.325230158795E-01
H43 -4.462828054008E-02  3.236956218625E-01 -4.925658992920E-01
H44 -1.108205190912E-02 -4.921109197078E-01 -1.747751059791E-01
C45 -1.592840492008E-01  9.882492228863E-02  9.020476733805E-03
H46 -1.722052739056E-01  1.826423813183E-01 -1.286823595242E-01
C47 -8.675401848536E-02  9.728517386385E-02  8.770433500397E-02
C48 -2.151307839402E-01 -3.111946793934E-03  1.079108376947E-01
H49 -4.462828054008E-02  1.763043781375E-01  7.434100707161E-03
C50 -6.811443689546E-02 -5.056549131393E-03  2.674769841197E-01
C51 -1.955191764499E-01 -1.038280768808E-01  2.904614362920E-01
C52 -2.923592271319E-01 -1.637294303183E-03  2.307575041952E-02
H53 -1.108205190912E-02 -7.889080292165E-03  3.252248940201E-01
C54 -1.231103782720E-01 -1.043406079542E-01  3.702568862446E-01
H55 -2.368737468659E-01 -1.857830382175E-01  3.695441862454E-01
C56 -3.517409472928E-01 -4.358912592002E-02  1.503237749943E-01
C57 -3.070647244835E-01  5.088719027285E-02 -1.941893897336E-01
H58 -1.098975927783E-01 -1.846032889301E-01 -4.890875768585E-01
H59 -3.430300693222E-01 -8.411562057590E-02  3.152993118118E-01
C60 -4.264404299512E-01 -2.650451326387E-02  7.651974003487E-02
H61 -2.610518658265E-01  7.654196516567E-02 -3.002491907770E-01
C62 -3.778024650932E-01  7.014546880658E-02 -2.705765682876E-01
C63 -4.867870358553E-01 -6.189149507916E-02  2.092315336815E-01
C64 -4.402678061282E-01  3.595188168866E-02 -1.381773485464E-01
H65 -3.874737435617E-01  1.153599862938E-01 -4.334583945031E-01
H66 -4.767178620441E-01 -1.108095756842E-01  3.706037281398E-01
C67  4.402678061282E-01 -3.595188168866E-02  1.381773485448E-01
C68  4.867870358553E-01  6.189149507916E-02 -2.092315336831E-01
C69  3.778024650932E-01 -7.014546880658E-02  2.705765682860E-01
C70  4.264404299512E-01  2.650451326387E-02 -7.651974003647E-02
H71  4.767178620441E-01  1.108095756842E-01 -3.706037281414E-01
H72  3.874737435617E-01 -1.153599862938E-01  4.334583945015E-01
C73  3.070647244835E-01 -5.088719027285E-02  1.941893897320E-01
C74  3.517409472928E-01  4.358912592002E-02 -1.503237749959E-01
H75  2.610518658265E-01 -7.654196516567E-02  3.002491907754E-01
C76  2.923592271319E-01  1.637294303183E-03 -2.307575042112E-02
H77  3.430300693222E-01  8.411562057590E-02 -3.152993118134E-01
C78  2.151307839402E-01  3.111946793934E-03 -1.079108376963E-01
C79  1.955191764499E-01  1.038280768808E-01 -2.904614362936E-01
C80  1.592840492008E-01 -9.882492228863E-02 -9.020476735406E-03
H81  2.368737468659E-01  1.857830382175E-01 -3.695441862470E-01
C82  1.231103782720E-01  1.043406079542E-01 -3.702568862462E-01
H83  1.722052739056E-01 -1.826423813183E-01  1.286823595226E-01
C84  8.675401848535E-02 -9.728517386385E-02 -8.770433500557E-02
H85  1.098975927783E-01  1.846032889301E-01  4.890875768569E-01
C86  6.811443689546E-02  5.056549131393E-03 -2.674769841213E-01
H87  4.462828054008E-02 -1.763043781375E-01 -7.434100708763E-03
H88  1.108205190912E-02  7.889080292165E-03 -3.252248940217E-01


#===END
