###############################################################################
#
#                    CRYSTAL17 CIF FILE
#
###############################################################################

data_OPT_STEP_0

_symmetry_space_group_name_H-M 'P 1'
_cell_length_a     17.97300000
_cell_length_b      7.35200000
_cell_length_c      6.24500000
_cell_angle_alpha   90.000000
_cell_angle_beta   90.646004
_cell_angle_gamma   90.000000

loop_
_atom_site_label
_atom_site_fract_x
_atom_site_fract_y
_atom_site_fract_z
C1  1.593959178810E-01 -3.902063328536E-01  4.945018320288E-01
H2  1.730524283563E-01 -3.091488090020E-01 -3.660203190962E-01
C3  8.704525332737E-02 -3.837255235180E-01  4.141859863919E-01
C4  2.140212162525E-01 -4.962282001141E-01  3.953281850874E-01
H5  4.605814138344E-02 -3.012355044815E-01  4.946070131084E-01
C6  6.721582354822E-02 -4.820356593013E-01  2.321987934315E-01
C7  1.932054600325E-01  4.073131460358E-01  2.105293421081E-01
C8  2.911277927449E-01  4.968759898109E-01  4.820279424902E-01
H9  1.037238013480E-02 -4.785307602164E-01  1.726810954506E-01
C10  1.209926126697E-01  4.148207231212E-01  1.290398010424E-01
H11  2.333819602161E-01  3.222941386321E-01  1.304823114521E-01
C12  3.502351173426E-01  4.444385557115E-01  3.585378101829E-01
C13  3.061081802442E-01 -4.479204246869E-01 -3.018660247748E-01
H14  1.069940270939E-01  3.379482518237E-01 -1.377498462191E-02
H15  3.414536563138E-01  4.007283794314E-01  1.946382732391E-01
C16  4.250795676574E-01  4.564934758221E-01  4.336848076503E-01
H17  2.602681158390E-01 -4.154729254906E-01 -1.977861928047E-01
C18  3.768789560511E-01 -4.349532235607E-01 -2.236816742777E-01
C19  4.854111598777E-01  4.149845675656E-01  3.031268082954E-01
C20  4.392067318069E-01 -4.768228160038E-01 -3.534688413091E-01
H21  3.866906774552E-01 -3.884527626397E-01 -6.133022850713E-02
H22  4.752545446613E-01  3.631463470261E-01  1.428628268771E-01
C23 -4.415195968858E-01  4.423042990155E-01  3.732389189486E-01
C24 -4.877399689694E-01 -4.521418187067E-01 -2.823729562025E-01
C25 -3.790843173692E-01  4.078828481088E-01  2.407927689180E-01
C26 -4.274819154980E-01 -4.900633189089E-01 -4.144092923708E-01
H27 -4.775482506362E-01 -4.003602348226E-01 -1.223301592287E-01
H28 -3.887335204188E-01  3.597890576128E-01  7.910273589203E-02
C29 -3.082360166751E-01  4.341801421347E-01  3.141324366852E-01
C30 -3.526517655802E-01 -4.669977762061E-01 -3.432717271195E-01
H31 -2.624706274006E-01  4.097554705254E-01  2.067368874454E-01
C32 -2.931167618372E-01  4.938269667777E-01 -4.715715800539E-01
H33 -3.439454628406E-01 -4.223369429339E-01 -1.798142521167E-01
C34 -2.152887488579E-01 -4.938061812499E-01 -3.912337507781E-01
C35 -1.965373154098E-01 -3.898610557967E-01 -2.102951736011E-01
C36 -1.577420699780E-01  4.120304023893E-01 -4.929011697684E-01
H37 -2.390800763843E-01 -3.134762144610E-01 -1.286470392552E-01
C38 -1.236065045450E-01 -3.791574885254E-01 -1.348992604057E-01
H39 -1.695955011566E-01  3.260962076198E-01  3.704530907126E-01
C40 -8.475506049342E-02  4.233333543847E-01 -4.182429486579E-01
H41 -1.112196509931E-01 -2.963443527845E-01  4.300766397736E-03
C42 -6.714517588132E-02 -4.715150204653E-01 -2.398582102062E-01
H43 -4.148377546621E-02  3.495753268702E-01  4.996314628805E-01
H44 -9.878124064255E-03 -4.612178166193E-01 -1.847453286775E-01
C45 -1.593959178810E-01  1.097936671464E-01  5.498167970439E-03
H46 -1.730524283563E-01  1.908511909980E-01 -1.339796809046E-01
C47 -8.704525332737E-02  1.162744764820E-01  8.581401360734E-02
C48 -2.140212162525E-01  3.771799885881E-03  1.046718149118E-01
H49 -4.605814138345E-02  1.987644955185E-01  5.392986890792E-03
C50 -6.721582354822E-02  1.796434069872E-02  2.678012065677E-01
C51 -1.932054600325E-01 -9.268685396423E-02  2.894706578911E-01
C52 -2.911277927449E-01 -3.124010189064E-03  1.797205750901E-02
H53 -1.037238013480E-02  2.146923978360E-02  3.273189045486E-01
C54 -1.209926126697E-01 -8.517927687881E-02  3.709601989568E-01
H55 -2.333819602161E-01 -1.777058613679E-01  3.695176885471E-01
C56 -3.502351173427E-01 -5.556144428849E-02  1.414621898163E-01
C57 -3.061081802442E-01  5.207957531311E-02 -1.981339752260E-01
H58 -1.069940270939E-01 -1.620517481763E-01 -4.862250153789E-01
H59 -3.414536563138E-01 -9.927162056855E-02  3.053617267601E-01
C60 -4.250795676574E-01 -4.350652417791E-02  6.631519234893E-02
H61 -2.602681158390E-01  8.452707450939E-02 -3.022138071961E-01
C62 -3.768789560511E-01  6.504677643934E-02 -2.763183257231E-01
C63 -4.854111598777E-01 -8.501543243444E-02  1.968731917038E-01
C64 -4.392067318069E-01  2.317718399619E-02 -1.465311586917E-01
H65 -3.866906774552E-01  1.115472373603E-01 -4.386697714937E-01
H66 -4.752545446613E-01 -1.368536529739E-01  3.571371731221E-01
C67  4.415195968858E-01 -5.769570098449E-02  1.267610810506E-01
C68  4.877399689694E-01  4.785818129325E-02 -2.176270437983E-01
C69  3.790843173692E-01 -9.211715189119E-02  2.592072310812E-01
C70  4.274819154980E-01  9.936681091132E-03 -8.559070762996E-02
H71  4.775482506362E-01  9.963976517737E-02 -3.776698407721E-01
H72  3.887335204188E-01 -1.402109423872E-01  4.208972641072E-01
C73  3.082360166750E-01 -6.581985786534E-02  1.858675633140E-01
C74  3.526517655802E-01  3.300222379393E-02 -1.567282728813E-01
H75  2.624706274006E-01 -9.024452947456E-02  2.932631125538E-01
C76  2.931167618372E-01 -6.173033222253E-03 -2.842841994690E-02
H77  3.439454628406E-01  7.766305706610E-02 -3.201857478841E-01
C78  2.152887488579E-01  6.193818750136E-03 -1.087662492227E-01
C79  1.965373154098E-01  1.101389442033E-01 -2.897048263997E-01
C80  1.577420699780E-01 -8.796959761072E-02 -7.098830232431E-03
H81  2.390800763843E-01  1.865237855390E-01 -3.713529607456E-01
C82  1.236065045450E-01  1.208425114746E-01 -3.651007395951E-01
H83  1.695955011566E-01 -1.739037923802E-01  1.295469092866E-01
C84  8.475506049342E-02 -7.666664561534E-02 -8.175705134286E-02
H85  1.112196509931E-01  2.036556472155E-01  4.956992336015E-01
C86  6.714517588132E-02  2.848497953468E-02 -2.601417897946E-01
H87  4.148377546621E-02 -1.504246731298E-01  3.685371187340E-04
H88  9.878124064252E-03  3.878218338071E-02 -3.152546713233E-01


#===END
