###############################################################################
#
#                    CRYSTAL17 CIF FILE
#
###############################################################################

data_OPT_STEP_0

_symmetry_space_group_name_H-M 'P 1'
_cell_length_a     17.97300000
_cell_length_b      7.35200000
_cell_length_c      6.24500000
_cell_angle_alpha   90.000000
_cell_angle_beta   90.646004
_cell_angle_gamma   90.000000

loop_
_atom_site_label
_atom_site_fract_x
_atom_site_fract_y
_atom_site_fract_z
C1  1.589081444774E-01 -4.051964886284E-01  4.905970566221E-01
H2  1.718350047114E-01 -3.252300000064E-01 -3.685689123857E-01
C3  8.607876255555E-02 -4.053177000363E-01  4.145698169912E-01
C4  2.148174720083E-01  4.973188804047E-01  3.855480846524E-01
H5  4.420980200681E-02 -3.294035962807E-01  4.998981716159E-01
C6  6.700251047740E-02  4.980895509387E-01  2.307311586686E-01
C7  1.947624074493E-01  4.035384590569E-01  1.981510721679E-01
C8  2.921670381750E-01  4.972894660676E-01  4.702773042564E-01
H9  9.810493164396E-03  4.958795250088E-01  1.746743478359E-01
C10  1.219972323494E-01  4.043058291974E-01  1.210751448850E-01
H11  2.359811542137E-01  3.260058363436E-01  1.124138682997E-01
C12  3.520044701256E-01  4.511108150862E-01  3.465120679913E-01
C13  3.064205023714E-01 -4.461116527821E-01 -3.137638168706E-01
H14  1.085832539098E-01  3.292000580747E-01 -2.334703049213E-02
H15  3.439986894190E-01  4.062657177669E-01  1.827810296527E-01
C16  4.265771999891E-01  4.702473374931E-01  4.219847710508E-01
H17  2.602857428381E-01 -4.183683130317E-01 -2.090950750073E-01
C18  3.768416623982E-01 -4.257401010356E-01 -2.356517490431E-01
C19  4.875947131469E-01  4.328318894846E-01  2.925438291104E-01
C20  4.397583237864E-01 -4.619520036035E-01 -3.651938790578E-01
H21  3.858239618320E-01 -3.785442700016E-01 -7.322880355373E-02
H22  4.783877806092E-01  3.805299345883E-01  1.321254761476E-01
C23 -4.397583237864E-01  4.619520036035E-01  3.651938790578E-01
C24 -4.875947131469E-01 -4.328318894846E-01 -2.925438291104E-01
C25 -3.768416623982E-01  4.257401010356E-01  2.356517490431E-01
C26 -4.265771999891E-01 -4.702473374931E-01 -4.219847710508E-01
H27 -4.783877806092E-01 -3.805299345883E-01 -1.321254761476E-01
H28 -3.858239618320E-01  3.785442700016E-01  7.322880355373E-02
C29 -3.064205023714E-01  4.461116527821E-01  3.137638168706E-01
C30 -3.520044701256E-01 -4.511108150862E-01 -3.465120679913E-01
H31 -2.602857428381E-01  4.183683130317E-01  2.090950750073E-01
C32 -2.921670381750E-01 -4.972894660676E-01 -4.702773042564E-01
H33 -3.439986894190E-01 -4.062657177669E-01 -1.827810296527E-01
C34 -2.148174720083E-01 -4.973188804047E-01 -3.855480846524E-01
C35 -1.947624074493E-01 -4.035384590569E-01 -1.981510721679E-01
C36 -1.589081444774E-01  4.051964886284E-01 -4.905970566221E-01
H37 -2.359811542137E-01 -3.260058363436E-01 -1.124138682997E-01
C38 -1.219972323494E-01 -4.043058291974E-01 -1.210751448850E-01
H39 -1.718350047114E-01  3.252300000064E-01  3.685689123857E-01
C40 -8.607876255555E-02  4.053177000363E-01 -4.145698169912E-01
H41 -1.085832539098E-01 -3.292000580747E-01  2.334703049213E-02
C42 -6.700251047740E-02 -4.980895509387E-01 -2.307311586686E-01
H43 -4.420980200681E-02  3.294035962807E-01 -4.998981716159E-01
H44 -9.810493164396E-03 -4.958795250088E-01 -1.746743478359E-01
C45 -1.582298433817E-01  1.029597533855E-01  3.194054824125E-03
H46 -1.708129248015E-01  1.899849833845E-01 -1.320955025777E-01
C47 -8.572155126526E-02  9.825882213371E-02  8.214088194063E-02
C48 -2.144924931020E-01  2.591007310936E-04  9.898614878617E-02
H49 -4.333211484286E-02  1.785927649290E-01  4.922621387176E-03
C50 -6.735848895216E-02 -8.610189774619E-03  2.586741550301E-01
C51 -1.949803679930E-01 -1.063642572244E-01  2.773265564580E-01
C52 -2.920775164070E-01  5.759556965588E-03  1.667778171147E-02
H53 -1.044001103468E-02 -1.319246860596E-02  3.172479237070E-01
C54 -1.226018848653E-01 -1.103276175507E-01  3.571360834361E-01
H55 -2.364808823868E-01 -1.902354832505E-01  3.532845175916E-01
C56 -3.508824127972E-01 -3.967448316866E-02  1.447025306881E-01
C57 -3.079236945478E-01  6.401108596055E-02 -1.977653554114E-01
H58 -1.096304241773E-01 -1.949074534664E-01  4.947287205267E-01
H59 -3.414004297354E-01 -8.320039540152E-02  3.083285042961E-01
C60 -4.259842831663E-01 -2.369054276211E-02  7.389067102892E-02
H61 -2.624530004015E-01  9.313991701564E-02 -3.045719947580E-01
C62 -3.791216110222E-01  8.290402936616E-02 -2.711773058482E-01
C63 -4.855564157002E-01 -6.570550321232E-02  2.070440646117E-01
C64 -4.409680049062E-01  4.282488858419E-02 -1.384861188008E-01
H65 -3.896002360419E-01  1.303024497492E-01 -4.327958391554E-01
H66 -4.744150146884E-01 -1.170233527395E-01  3.669324900410E-01
C67  4.409680049062E-01 -4.282488858419E-02  1.384861188008E-01
C68  4.855564157002E-01  6.570550321232E-02 -2.070440646117E-01
C69  3.791216110222E-01 -8.290402936616E-02  2.711773058482E-01
C70  4.259842831663E-01  2.369054276211E-02 -7.389067102892E-02
H71  4.744150146884E-01  1.170233527395E-01 -3.669324900410E-01
H72  3.896002360419E-01 -1.303024497492E-01  4.327958391554E-01
C73  3.079236945478E-01 -6.401108596055E-02  1.977653554114E-01
C74  3.508824127972E-01  3.967448316866E-02 -1.447025306881E-01
H75  2.624530004015E-01 -9.313991701564E-02  3.045719947580E-01
C76  2.920775164070E-01 -5.759556965588E-03 -1.667778171147E-02
H77  3.414004297354E-01  8.320039540152E-02 -3.083285042961E-01
C78  2.144924931020E-01 -2.591007310936E-04 -9.898614878617E-02
C79  1.949803679930E-01  1.063642572244E-01 -2.773265564580E-01
C80  1.582298433817E-01 -1.029597533855E-01 -3.194054824125E-03
H81  2.364808823868E-01  1.902354832505E-01 -3.532845175916E-01
C82  1.226018848653E-01  1.103276175507E-01 -3.571360834361E-01
H83  1.708129248015E-01 -1.899849833845E-01  1.320955025777E-01
C84  8.572155126526E-02 -9.825882213371E-02 -8.214088194063E-02
H85  1.096304241773E-01  1.949074534664E-01 -4.947287205267E-01
C86  6.735848895216E-02  8.610189774619E-03 -2.586741550301E-01
H87  4.333211484286E-02 -1.785927649290E-01 -4.922621387176E-03
H88  1.044001103468E-02  1.319246860596E-02 -3.172479237070E-01


#===END
