###############################################################################
#
#                    CRYSTAL17 CIF FILE
#
###############################################################################

data_OPT_STEP_0

_symmetry_space_group_name_H-M 'P 1'
_cell_length_a     17.97300000
_cell_length_b      7.35200000
_cell_length_c      6.24500000
_cell_angle_alpha   90.000000
_cell_angle_beta   90.646004
_cell_angle_gamma   90.000000

loop_
_atom_site_label
_atom_site_fract_x
_atom_site_fract_y
_atom_site_fract_z
C1  1.574858076951E-01 -4.096339057810E-01  4.938075986025E-01
H2  1.687340402667E-01 -3.339209568682E-01 -3.605967496079E-01
C3  8.516685392564E-02 -4.117830911382E-01  4.139123709268E-01
C4  2.149811426109E-01 -4.997344642919E-01  3.862213928045E-01
H5  4.190975535896E-02 -3.416023311689E-01 -4.993555894828E-01
C6  6.819870391325E-02  4.974351050192E-01  2.239134679714E-01
C7  1.969669727509E-01  4.118145718848E-01  1.926610504852E-01
C8  2.921696719565E-01 -4.976889667961E-01  4.723061323879E-01
H9  1.136023959752E-02  4.940244479347E-01  1.652071258525E-01
C10  1.247592438726E-01  4.110785516073E-01  1.114132249324E-01
H11  2.393926558493E-01  3.399750801416E-01  1.040488425625E-01
C12  3.518647458298E-01  4.560311853780E-01  3.481604313589E-01
C13  3.068299380261E-01 -4.399238924051E-01 -3.122591576287E-01
H14  1.131359507085E-01  3.413339966186E-01 -3.869949634042E-02
H15  3.438601248555E-01  4.112598884714E-01  1.845104896726E-01
C16  4.264602284213E-01  4.734280575250E-01  4.228992334784E-01
H17  2.610353350893E-01 -4.104246970839E-01 -2.071680149790E-01
C18  3.774338266567E-01 -4.203047225669E-01 -2.349633969997E-01
C19  4.869839768957E-01  4.330732234003E-01  2.928094095230E-01
C20  4.401393814037E-01 -4.589592245203E-01 -3.646372407010E-01
H21  3.867742554682E-01 -3.725077812481E-01 -7.301101088003E-02
H22  4.771308580590E-01  3.810245232428E-01  1.326136199838E-01
C23 -4.401393814037E-01  4.589592245203E-01  3.646372407010E-01
C24 -4.869839768957E-01 -4.330732234003E-01 -2.928094095230E-01
C25 -3.774338266567E-01  4.203047225669E-01  2.349633969997E-01
C26 -4.264602284213E-01 -4.734280575250E-01 -4.228992334784E-01
H27 -4.771308580590E-01 -3.810245232428E-01 -1.326136199838E-01
H28 -3.867742554682E-01  3.725077812481E-01  7.301101088003E-02
C29 -3.068299380261E-01  4.399238924051E-01  3.122591576287E-01
C30 -3.518647458298E-01 -4.560311853780E-01 -3.481604313589E-01
H31 -2.610353350893E-01  4.104246970839E-01  2.071680149790E-01
C32 -2.921696719565E-01  4.976889667961E-01 -4.723061323879E-01
H33 -3.438601248555E-01 -4.112598884714E-01 -1.845104896726E-01
C34 -2.149811426109E-01  4.997344642919E-01 -3.862213928045E-01
C35 -1.969669727509E-01 -4.118145718848E-01 -1.926610504852E-01
C36 -1.574858076951E-01  4.096339057810E-01 -4.938075986025E-01
H37 -2.393926558493E-01 -3.399750801416E-01 -1.040488425625E-01
C38 -1.247592438726E-01 -4.110785516073E-01 -1.114132249324E-01
H39 -1.687340402667E-01  3.339209568682E-01  3.605967496079E-01
C40 -8.516685392564E-02  4.117830911382E-01 -4.139123709268E-01
H41 -1.131359507085E-01 -3.413339966186E-01  3.869949634042E-02
C42 -6.819870391325E-02 -4.974351050192E-01 -2.239134679714E-01
H43 -4.190975535896E-02  3.416023311689E-01  4.993555894828E-01
H44 -1.136023959752E-02 -4.940244479347E-01 -1.652071258525E-01
C45 -1.574858076951E-01  9.036609421899E-02  6.192401396673E-03
H46 -1.687340402667E-01  1.660790431318E-01 -1.394032503929E-01
C47 -8.516685392565E-02  8.821690886181E-02  8.608762907242E-02
C48 -2.149811426109E-01  2.655357081066E-04  1.137786071947E-01
H49 -4.190975535896E-02  1.583976688311E-01 -6.444105180479E-04
C50 -6.819870391325E-02 -2.564894980822E-03  2.760865320278E-01
C51 -1.969669727509E-01 -8.818542811521E-02  3.073389495140E-01
C52 -2.921696719565E-01  2.311033203890E-03  2.769386761128E-02
H53 -1.136023959752E-02 -5.975552065288E-03  3.347928741467E-01
C54 -1.247592438726E-01 -8.892144839268E-02  3.885867750668E-01
H55 -2.393926558493E-01 -1.600249198584E-01  3.959511574367E-01
C56 -3.518647458298E-01 -4.396881462201E-02  1.518395686403E-01
C57 -3.068299380261E-01  6.007610759494E-02 -1.877408423721E-01
H58 -1.131359507085E-01 -1.586660033814E-01 -4.613005036604E-01
H59 -3.438601248555E-01 -8.874011152856E-02  3.154895103266E-01
C60 -4.264602284214E-01 -2.657194247497E-02  7.710076652080E-02
H61 -2.610353350893E-01  8.957530291608E-02 -2.928319850218E-01
C62 -3.774338266567E-01  7.969527743308E-02 -2.650366030011E-01
C63 -4.869839768957E-01 -6.692677659970E-02  2.071905904762E-01
C64 -4.401393814037E-01  4.104077547973E-02 -1.353627592998E-01
H65 -3.867742554682E-01  1.274922187519E-01 -4.269889891208E-01
H66 -4.771308580590E-01 -1.189754767572E-01  3.673863800154E-01
C67  4.401393814037E-01 -4.104077547973E-02  1.353627592982E-01
C68  4.869839768957E-01  6.692677659970E-02 -2.071905904778E-01
C69  3.774338266567E-01 -7.969527743308E-02  2.650366029995E-01
C70  4.264602284213E-01  2.657194247497E-02 -7.710076652241E-02
H71  4.771308580590E-01  1.189754767572E-01 -3.673863800170E-01
H72  3.867742554682E-01 -1.274922187519E-01  4.269889891192E-01
C73  3.068299380261E-01 -6.007610759494E-02  1.877408423705E-01
C74  3.518647458298E-01  4.396881462201E-02 -1.518395686419E-01
H75  2.610353350893E-01 -8.957530291608E-02  2.928319850202E-01
C76  2.921696719565E-01 -2.311033203890E-03 -2.769386761288E-02
H77  3.438601248555E-01  8.874011152856E-02 -3.154895103282E-01
C78  2.149811426109E-01 -2.655357081068E-04 -1.137786071963E-01
C79  1.969669727509E-01  8.818542811521E-02 -3.073389495156E-01
C80  1.574858076951E-01 -9.036609421899E-02 -6.192401398274E-03
H81  2.393926558493E-01  1.600249198584E-01 -3.959511574383E-01
C82  1.247592438726E-01  8.892144839268E-02 -3.885867750684E-01
H83  1.687340402667E-01 -1.660790431318E-01  1.394032503913E-01
C84  8.516685392564E-02 -8.821690886181E-02 -8.608762907402E-02
H85  1.131359507085E-01  1.586660033814E-01  4.613005036588E-01
C86  6.819870391325E-02  2.564894980821E-03 -2.760865320295E-01
H87  4.190975535896E-02 -1.583976688311E-01  6.444105164465E-04
H88  1.136023959751E-02  5.975552065288E-03 -3.347928741483E-01


#===END
