###############################################################################
#
#                    CRYSTAL17 CIF FILE
#
###############################################################################

data_OPT_STEP_0

_symmetry_space_group_name_H-M 'P 1'
_cell_length_a     17.97300000
_cell_length_b      7.35200000
_cell_length_c      6.24500000
_cell_angle_alpha   90.000000
_cell_angle_beta   90.646004
_cell_angle_gamma   90.000000

loop_
_atom_site_label
_atom_site_fract_x
_atom_site_fract_y
_atom_site_fract_z
C1  1.584711336623E-01 -3.987666776054E-01  4.842388835541E-01
H2  1.706682608659E-01 -3.133355487916E-01 -3.788111943950E-01
C3  8.653992635488E-02 -3.989572751181E-01  4.005645932565E-01
C4  2.146637163985E-01  4.965824992896E-01  3.905821786753E-01
H5  4.425758547314E-02 -3.168552861952E-01  4.760748794417E-01
C6  6.880673075666E-02  4.966376694448E-01  2.217173013689E-01
C7  1.957509959117E-01  3.924167826151E-01  2.100749542964E-01
C8  2.917925681368E-01 -4.998886255365E-01  4.761708775604E-01
H9  1.234671668530E-02  4.957912477750E-01  1.590504083483E-01
C10  1.239574503775E-01  3.928898126370E-01  1.256451294288E-01
H11  2.372899407455E-01  3.076913390286E-01  1.355832840780E-01
C12  3.512491879606E-01  4.556606899146E-01  3.502959920682E-01
C13  3.065581865393E-01 -4.417159423641E-01 -3.088356923900E-01
H14  1.113516460383E-01  3.106810999491E-01 -1.374317188617E-02
H15  3.426536730856E-01  4.118975723351E-01  1.864092443737E-01
C16  4.259486122199E-01  4.745393673123E-01  4.235137787992E-01
H17  2.605509467632E-01 -4.139731696391E-01 -2.034769984333E-01
C18  3.773452418075E-01 -4.205464770563E-01 -2.331173152994E-01
C19  4.861840253232E-01  4.354234035559E-01  2.920124681282E-01
C20  4.399173046546E-01 -4.580102129746E-01 -3.639787140295E-01
H21  3.868966037780E-01 -3.728166719206E-01 -7.118584962056E-02
H22  4.760027621852E-01  3.837278740956E-01  1.318259873074E-01
C23 -4.408090240380E-01  4.611169020447E-01  3.627290462282E-01
C24 -4.869671035240E-01 -4.317029827164E-01 -2.934872963697E-01
C25 -3.786180316130E-01  4.222895946132E-01  2.313571278964E-01
C26 -4.266128709355E-01 -4.720174274187E-01 -4.245803212219E-01
H27 -4.768000331123E-01 -3.797787077531E-01 -1.333669987983E-01
H28 -3.885275940960E-01  3.754251483319E-01  6.924711477860E-02
C29 -3.077860103799E-01  4.403846244574E-01  3.071627690700E-01
C30 -3.516376949622E-01 -4.557756420030E-01 -3.515135452342E-01
H31 -2.621877964764E-01  4.112552263769E-01  2.010460818168E-01
C32 -2.924519864452E-01  4.970623514304E-01 -4.774286449837E-01
H33 -3.427454460689E-01 -4.111677500302E-01 -1.880432809821E-01
C34 -2.146462487119E-01  4.990045181538E-01 -3.959797571902E-01
C35 -1.939917795306E-01 -4.047574192174E-01 -2.107495614127E-01
C36 -1.586668541968E-01  4.034700576375E-01  4.968358817570E-01
H37 -2.351720958550E-01 -3.280790140645E-01 -1.235460666294E-01
C38 -1.206416668371E-01 -4.010883990097E-01 -1.382939320194E-01
H39 -1.719796686470E-01  3.219094678303E-01  3.576622154138E-01
C40 -8.526038746590E-02  4.081016027845E-01 -4.318643417933E-01
H41 -1.068620320487E-01 -3.236115046591E-01  4.332579133475E-03
C42 -6.555426867289E-02 -4.928416917193E-01 -2.503397022689E-01
H43 -4.328433137657E-02  3.339555451566E-01  4.810993292138E-01
H44 -7.903787513755E-03 -4.868958086279E-01 -1.983760157797E-01
C45 -1.584711336623E-01  1.012333223946E-01  1.576111644509E-02
H46 -1.706682608659E-01  1.866644512084E-01 -1.211888056058E-01
C47 -8.653992635489E-02  1.010427248819E-01  9.943540674273E-02
C48 -2.146637163985E-01 -3.417500710419E-03  1.094178213239E-01
H49 -4.425758547314E-02  1.831447138048E-01  2.392512055748E-02
C50 -6.880673075666E-02 -3.362330555223E-03  2.782826986303E-01
C51 -1.957509959117E-01 -1.075832173849E-01  2.899250457028E-01
C52 -2.917925681368E-01  1.113744635473E-04  2.382912243877E-02
H53 -1.234671668530E-02 -4.208752224973E-03  3.409495916509E-01
C54 -1.239574503775E-01 -1.071101873630E-01  3.743548705704E-01
H55 -2.372899407455E-01 -1.923086609714E-01  3.644167159212E-01
C56 -3.512491879606E-01 -4.433931008542E-02  1.497040079310E-01
C57 -3.065581865393E-01  5.828405763588E-02 -1.911643076108E-01
H58 -1.113516460383E-01 -1.893189000509E-01 -4.862568281146E-01
H59 -3.426536730856E-01 -8.810242766485E-02  3.135907556255E-01
C60 -4.259486122199E-01 -2.546063268770E-02  7.648622119998E-02
H61 -2.605509467632E-01  8.602683036085E-02 -2.965230015675E-01
C62 -3.773452418075E-01  7.945352294369E-02 -2.668826847014E-01
C63 -4.861840253232E-01 -6.457659644410E-02  2.079875318710E-01
C64 -4.399173046546E-01  4.198978702544E-02 -1.360212859713E-01
H65 -3.868966037780E-01  1.271833280794E-01 -4.288141503802E-01
H66 -4.760027621852E-01 -1.162721259044E-01  3.681740126918E-01
C67  4.408090240380E-01 -3.888309795525E-02  1.372709537710E-01
C68  4.869671035240E-01  6.829701728360E-02 -2.065127036311E-01
C69  3.786180316130E-01 -7.771040538683E-02  2.686428721028E-01
C70  4.266128709355E-01  2.798257258134E-02 -7.541967877892E-02
H71  4.768000331123E-01  1.202212922469E-01 -3.666330012025E-01
H72  3.885275940959E-01 -1.245748516681E-01  4.307528852206E-01
C73  3.077860103799E-01 -5.961537554257E-02  1.928372309292E-01
C74  3.516376949622E-01  4.422435799701E-02 -1.484864547666E-01
H75  2.621877964764E-01 -8.874477362310E-02  2.989539181824E-01
C76  2.924519864452E-01 -2.937648569641E-03 -2.257135501714E-02
H77  3.427454460688E-01  8.883224996980E-02 -3.119567190187E-01
C78  2.146462487119E-01 -9.954818461645E-04 -1.040202428106E-01
C79  1.939917795306E-01  9.524258078264E-02 -2.892504385881E-01
C80  1.586668541968E-01 -9.652994236249E-02  3.164118242223E-03
H81  2.351720958550E-01  1.719209859355E-01 -3.764539333714E-01
C82  1.206416668371E-01  9.891160099034E-02 -3.617060679814E-01
H83  1.719796686470E-01 -1.780905321697E-01  1.423377845854E-01
C84  8.526038746590E-02 -9.189839721545E-02 -6.813565820747E-02
H85  1.068620320487E-01  1.763884953409E-01  4.956674208657E-01
C86  6.555426867289E-02  7.158308280740E-03 -2.496602977319E-01
H87  4.328433137656E-02 -1.660444548434E-01  1.890067078542E-02
H88  7.903787513752E-03  1.310419137214E-02 -3.016239842211E-01


#===END
