###############################################################################
#
#                    CRYSTAL17 CIF FILE
#
###############################################################################

data_OPT_STEP_0

_symmetry_space_group_name_H-M 'P 1'
_cell_length_a     17.97300000
_cell_length_b      7.35200000
_cell_length_c      6.24500000
_cell_angle_alpha   90.000000
_cell_angle_beta   90.646004
_cell_angle_gamma   90.000000

loop_
_atom_site_label
_atom_site_fract_x
_atom_site_fract_y
_atom_site_fract_z
C1  1.564396167118E-01 -4.000105659547E-01  4.923637009713E-01
H2  1.684828648686E-01 -3.163829657190E-01 -3.690392424145E-01
C3  8.388686980409E-02 -4.038234122009E-01  4.131314148928E-01
C4  2.132899614190E-01 -4.993851626583E-01  3.937942850032E-01
H5  4.137509661879E-02 -3.261624559954E-01  4.933502005063E-01
C6  6.566431479410E-02  4.932970066711E-01  2.333936129484E-01
C7  1.938719654308E-01  4.004829889630E-01  2.102933706309E-01
C8  2.910656539430E-01 -4.977955044270E-01  4.785437598738E-01
H9  8.688361013678E-03  4.880888731345E-01  1.757967466908E-01
C10  1.214315633737E-01  3.968427096368E-01  1.306260770614E-01
H11  2.355437318756E-01  3.205052306226E-01  1.297661449516E-01
C12  3.505806703312E-01  4.537400079762E-01  3.539364104566E-01
C13  3.067399186396E-01 -4.403709744291E-01 -3.063196952908E-01
H14  1.089432303277E-01  3.162382408303E-01 -1.027798329594E-02
H15  3.418009400727E-01  4.085848622133E-01  1.905977728096E-01
C16  4.258271823789E-01  4.711637560280E-01  4.259054270475E-01
H17  2.611766449994E-01 -4.096674822980E-01 -2.004486508328E-01
C18  3.778235468185E-01 -4.235483820649E-01 -2.305010247208E-01
C19  4.862259774721E-01  4.335060687375E-01  2.932767246819E-01
C20  4.403815381729E-01 -4.616260781122E-01 -3.617115391800E-01
H21  3.875925493608E-01 -3.765858929999E-01 -6.833779957059E-02
H22  4.758747439945E-01  3.815757482606E-01  1.332206326008E-01
C23 -4.403815381729E-01  4.616260781122E-01  3.617115391800E-01
C24 -4.862259774721E-01 -4.335060687375E-01 -2.932767246819E-01
C25 -3.778235468185E-01  4.235483820649E-01  2.305010247208E-01
C26 -4.258271823789E-01 -4.711637560280E-01 -4.259054270475E-01
H27 -4.758747439945E-01 -3.815757482606E-01 -1.332206326008E-01
H28 -3.875925493608E-01  3.765858929999E-01  6.833779957059E-02
C29 -3.067399186396E-01  4.403709744291E-01  3.063196952908E-01
C30 -3.505806703312E-01 -4.537400079762E-01 -3.539364104566E-01
H31 -2.611766449994E-01  4.096674822980E-01  2.004486508328E-01
C32 -2.910656539430E-01  4.977955044270E-01 -4.785437598738E-01
H33 -3.418009400727E-01 -4.085848622133E-01 -1.905977728096E-01
C34 -2.132899614190E-01  4.993851626583E-01 -3.937942850032E-01
C35 -1.938719654308E-01 -4.004829889630E-01 -2.102933706309E-01
C36 -1.564396167118E-01  4.000105659547E-01 -4.923637009713E-01
H37 -2.355437318756E-01 -3.205052306226E-01 -1.297661449516E-01
C38 -1.214315633737E-01 -3.968427096368E-01 -1.306260770614E-01
H39 -1.684828648686E-01  3.163829657190E-01  3.690392424145E-01
C40 -8.388686980409E-02  4.038234122009E-01 -4.131314148928E-01
H41 -1.089432303277E-01 -3.162382408303E-01  1.027798329593E-02
C42 -6.566431479410E-02 -4.932970066711E-01 -2.333936129484E-01
H43 -4.137509661879E-02  3.261624559954E-01 -4.933502005063E-01
H44 -8.688361013678E-03 -4.880888731345E-01 -1.757967466908E-01
C45 -1.606983711473E-01  9.777383071178E-02  4.960699173330E-03
H46 -1.741650646443E-01  1.811379490971E-01 -1.325658326066E-01
C47 -8.791344401672E-02  9.676453429829E-02  8.070247984217E-02
C48 -2.160200036914E-01 -3.036856205930E-03  1.072323491370E-01
H49 -4.616682023089E-02  1.753516246436E-01 -1.625349722424E-03
C50 -6.869668463541E-02 -3.817645507073E-03  2.613366093098E-01
C51 -1.958708100115E-01 -1.033087871306E-01  2.894688549209E-01
C52 -2.931789006390E-01  8.445274601469E-04  2.494423732889E-02
H53 -1.156214318534E-02 -5.401816731638E-03  3.183703225620E-01
C54 -1.231675538409E-01 -1.028644979902E-01  3.666870156125E-01
H55 -2.369183047248E-01 -1.847348775295E-01  3.706367942434E-01
C56 -3.523062125917E-01 -4.230367605862E-02  1.521268731534E-01
C57 -3.076042782797E-01  5.827040760759E-02 -1.903212338316E-01
H58 -1.092704477594E-01 -1.819456362220E-01 -4.922022322771E-01
H59 -3.435981790817E-01 -8.551953984793E-02  3.161452474530E-01
C60 -4.267343007764E-01 -2.460696129706E-02  7.781132702564E-02
H61 -2.615620982402E-01  8.443908628196E-02 -2.959255705835E-01
C62 -3.781397266019E-01  8.071231039540E-02 -2.660265815259E-01
C63 -4.869251513750E-01 -6.637968246518E-02  2.077769601832E-01
C64 -4.403447905198E-01  4.249896309290E-02 -1.350037789230E-01
H65 -3.878316485131E-01  1.283440727474E-01 -4.279048351722E-01
H66 -4.769280513031E-01 -1.180691664119E-01  3.680276464943E-01
C67  4.403447905198E-01 -4.249896309290E-02  1.350037789230E-01
C68  4.869251513750E-01  6.637968246518E-02 -2.077769601832E-01
C69  3.781397266019E-01 -8.071231039540E-02  2.660265815259E-01
C70  4.267343007764E-01  2.460696129706E-02 -7.781132702564E-02
H71  4.769280513031E-01  1.180691664119E-01 -3.680276464943E-01
H72  3.878316485131E-01 -1.283440727474E-01  4.279048351722E-01
C73  3.076042782797E-01 -5.827040760759E-02  1.903212338316E-01
C74  3.523062125917E-01  4.230367605862E-02 -1.521268731534E-01
H75  2.615620982402E-01 -8.443908628196E-02  2.959255705835E-01
C76  2.931789006390E-01 -8.445274601469E-04 -2.494423732889E-02
H77  3.435981790817E-01  8.551953984793E-02 -3.161452474530E-01
C78  2.160200036914E-01  3.036856205930E-03 -1.072323491370E-01
C79  1.958708100115E-01  1.033087871306E-01 -2.894688549209E-01
C80  1.606983711473E-01 -9.777383071178E-02 -4.960699173330E-03
H81  2.369183047248E-01  1.847348775295E-01 -3.706367942434E-01
C82  1.231675538409E-01  1.028644979902E-01 -3.666870156125E-01
H83  1.741650646443E-01 -1.811379490971E-01  1.325658326066E-01
C84  8.791344401672E-02 -9.676453429829E-02 -8.070247984217E-02
H85  1.092704477594E-01  1.819456362220E-01  4.922022322771E-01
C86  6.869668463541E-02  3.817645507073E-03 -2.613366093098E-01
H87  4.616682023089E-02 -1.753516246436E-01  1.625349722424E-03
H88  1.156214318534E-02  5.401816731638E-03 -3.183703225620E-01


#===END
