###############################################################################
#
#                    CRYSTAL17 CIF FILE
#
###############################################################################

data_OPT_STEP_0

_symmetry_space_group_name_H-M 'P 1'
_cell_length_a     17.97300000
_cell_length_b      7.35200000
_cell_length_c      6.24500000
_cell_angle_alpha   90.000000
_cell_angle_beta   90.646004
_cell_angle_gamma   90.000000

loop_
_atom_site_label
_atom_site_fract_x
_atom_site_fract_y
_atom_site_fract_z
C1  1.593189815866E-01 -3.949093532816E-01  4.878256965838E-01
H2  1.730880481393E-01 -3.082745020820E-01 -3.774678471492E-01
C3  8.634395138196E-02 -3.968008233033E-01  4.126299704493E-01
C4  2.143891199393E-01  4.994475826979E-01  3.900457525262E-01
H5  4.495485922627E-02 -3.151946057025E-01  4.925438424126E-01
C6  6.629296185471E-02  4.967124614588E-01  2.372516612922E-01
C7  1.933502411022E-01  3.949648483897E-01  2.116379889530E-01
C8  2.919681372300E-01 -4.994800700083E-01  4.730675972919E-01
H9  8.978777282817E-03  4.933111552986E-01  1.821705121727E-01
C10  1.204540655181E-01  3.939049187530E-01  1.354540779403E-01
H11  2.340209797037E-01  3.103320291091E-01  1.332675289339E-01
C12  3.515027543606E-01  4.549847360370E-01  3.477029948436E-01
C13  3.066656043125E-01 -4.434004334251E-01 -3.110630766033E-01
H14  1.062538907545E-01  3.102542228814E-01 -1.858968739611E-03
H15  3.429117933184E-01  4.115068974695E-01  1.836426268404E-01
C16  4.263155496491E-01  4.725719556914E-01  4.222571787961E-01
H17  2.606110859461E-01 -4.160674214687E-01 -2.057796996207E-01
C18  3.773162056562E-01 -4.238238627171E-01 -2.341490148084E-01
C19  4.871294507672E-01  4.341501342465E-01  2.923045338879E-01
C20  4.399806020764E-01 -4.608745973979E-01 -3.645837283903E-01
H21  3.867122074406E-01 -3.772304367670E-01 -7.168777009542E-02
H22  4.775847415548E-01  3.826885978876E-01  1.316852290654E-01
C23 -4.399806020764E-01  4.608745973979E-01  3.645837283903E-01
C24 -4.871294507672E-01 -4.341501342465E-01 -2.923045338879E-01
C25 -3.773162056562E-01  4.238238627171E-01  2.341490148084E-01
C26 -4.263155496491E-01 -4.725719556914E-01 -4.222571787961E-01
H27 -4.775847415548E-01 -3.826885978876E-01 -1.316852290654E-01
H28 -3.867122074406E-01  3.772304367670E-01  7.168777009542E-02
C29 -3.066656043125E-01  4.434004334251E-01  3.110630766033E-01
C30 -3.515027543606E-01 -4.549847360370E-01 -3.477029948436E-01
H31 -2.606110859461E-01  4.160674214687E-01  2.057796996207E-01
C32 -2.919681372300E-01  4.994800700083E-01 -4.730675972919E-01
H33 -3.429117933184E-01 -4.115068974695E-01 -1.836426268404E-01
C34 -2.143891199393E-01 -4.994475826979E-01 -3.900457525262E-01
C35 -1.933502411022E-01 -3.949648483897E-01 -2.116379889530E-01
C36 -1.593189815866E-01  3.949093532816E-01 -4.878256965838E-01
H37 -2.340209797037E-01 -3.103320291091E-01 -1.332675289339E-01
C38 -1.204540655181E-01 -3.939049187530E-01 -1.354540779403E-01
H39 -1.730880481393E-01  3.082745020820E-01  3.774678471492E-01
C40 -8.634395138196E-02  3.968008233033E-01 -4.126299704493E-01
H41 -1.062538907545E-01 -3.102542228814E-01  1.858968739611E-03
C42 -6.629296185471E-02 -4.967124614588E-01 -2.372516612922E-01
H43 -4.495485922627E-02  3.151946057025E-01 -4.925438424126E-01
H44 -8.978777282817E-03 -4.933111552986E-01 -1.821705121727E-01
C45 -1.578190062725E-01  9.267261803863E-02  4.226947858680E-04
H46 -1.695598813735E-01  1.730294854601E-01 -1.409944373412E-01
C47 -8.545636243884E-02  8.974194540071E-02  8.020103539869E-02
C48 -2.149208451711E-01 -1.869601562160E-03  1.034838166599E-01
H49 -4.258705762341E-02  1.643837743508E-01 -2.431707816164E-03
C50 -6.806803757485E-02 -7.233100294750E-03  2.651946576536E-01
C51 -1.963925343401E-01 -9.779064655726E-02  2.908134732430E-01
C52 -2.922764173520E-01  2.529093041485E-03  1.946807474705E-02
H53 -1.127172691620E-02 -1.062409889567E-02  3.247440880439E-01
C54 -1.241450516965E-01 -9.992670710637E-02  3.715150164913E-01
H55 -2.384410568968E-01 -1.745616760160E-01  3.741381782257E-01
C56 -3.513841285623E-01 -4.354840411942E-02  1.458934575404E-01
C57 -3.076785926067E-01  6.129986660351E-02 -1.950646151441E-01
H58 -1.119597873325E-01 -1.759616182731E-01 -4.837832177208E-01
H59 -3.424873258361E-01 -8.844157510419E-02  3.091901014838E-01
C60 -4.262459335063E-01 -2.601516096042E-02  7.416307877417E-02
H61 -2.621276572935E-01  9.083902545267E-02 -3.012566193714E-01
C62 -3.786470677642E-01  8.098779104761E-02 -2.696745716135E-01
C63 -4.860216780800E-01 -6.702374797416E-02  2.068047693892E-01
C64 -4.407457266162E-01  4.174748237854E-02 -1.378759681334E-01
H65 -3.887119904334E-01  1.289886165146E-01 -4.312548056971E-01
H66 -4.752180537428E-01 -1.191820160389E-01  3.664922429589E-01
C67  4.407457266162E-01 -4.174748237854E-02  1.378759681334E-01
C68  4.860216780800E-01  6.702374797416E-02 -2.068047693892E-01
C69  3.786470677642E-01 -8.098779104761E-02  2.696745716135E-01
C70  4.262459335063E-01  2.601516096042E-02 -7.416307877417E-02
H71  4.752180537428E-01  1.191820160389E-01 -3.664922429589E-01
H72  3.887119904334E-01 -1.289886165146E-01  4.312548056971E-01
C73  3.076785926067E-01 -6.129986660351E-02  1.950646151441E-01
C74  3.513841285623E-01  4.354840411942E-02 -1.458934575404E-01
H75  2.621276572935E-01 -9.083902545267E-02  3.012566193714E-01
C76  2.922764173520E-01 -2.529093041485E-03 -1.946807474705E-02
H77  3.424873258361E-01  8.844157510419E-02 -3.091901014838E-01
C78  2.149208451711E-01  1.869601562160E-03 -1.034838166599E-01
C79  1.963925343401E-01  9.779064655726E-02 -2.908134732430E-01
C80  1.578190062725E-01 -9.267261803863E-02 -4.226947858680E-04
H81  2.384410568968E-01  1.745616760160E-01 -3.741381782257E-01
C82  1.241450516965E-01  9.992670710637E-02 -3.715150164913E-01
H83  1.695598813735E-01 -1.730294854601E-01  1.409944373412E-01
C84  8.545636243884E-02 -8.974194540071E-02 -8.020103539869E-02
H85  1.119597873325E-01  1.759616182731E-01  4.837832177208E-01
C86  6.806803757485E-02  7.233100294750E-03 -2.651946576536E-01
H87  4.258705762341E-02 -1.643837743508E-01  2.431707816164E-03
H88  1.127172691620E-02  1.062409889567E-02 -3.247440880439E-01


#===END
