###############################################################################
#
#                    CRYSTAL17 CIF FILE
#
###############################################################################

data_OPT_STEP_0

_symmetry_space_group_name_H-M 'P 1'
_cell_length_a     17.97300000
_cell_length_b      7.35200000
_cell_length_c      6.24500000
_cell_angle_alpha   90.000000
_cell_angle_beta   90.646004
_cell_angle_gamma   90.000000

loop_
_atom_site_label
_atom_site_fract_x
_atom_site_fract_y
_atom_site_fract_z
C1  1.569695030946E-01 -4.080392215061E-01  4.945358011216E-01
H2  1.677324906284E-01 -3.306591304253E-01 -3.607952824512E-01
C3  8.516659255332E-02 -4.085106841922E-01  4.100182748352E-01
C4  2.146314989453E-01  4.986938651484E-01  3.924551710792E-01
H5  4.192753938966E-02 -3.349018406076E-01  4.922868224725E-01
C6  6.871283465642E-02  4.984844497033E-01  2.212365845561E-01
C7  1.971662320637E-01  4.076002712553E-01  2.004231490059E-01
C8  2.915025090781E-01 -4.993553771668E-01  4.812464042720E-01
H9  1.223932006485E-02  4.967270494927E-01  1.586344854955E-01
C10  1.254660092862E-01  4.079625292594E-01  1.149550471214E-01
H11  2.396359569555E-01  3.327606195427E-01  1.162852774783E-01
C12  3.513189798279E-01  4.537860177996E-01  3.581593430481E-01
C13  3.060788486158E-01 -4.408934112040E-01 -3.034573213501E-01
H14  1.143339885618E-01  3.358735442165E-01 -3.369872781768E-02
H15  3.434799617306E-01  4.087851928464E-01  1.944812128167E-01
C16  4.258019371984E-01  4.714135602930E-01  4.331920291912E-01
H17  2.601053832624E-01 -4.105921746730E-01 -1.990928497765E-01
C18  3.767270543725E-01 -4.217788550163E-01 -2.255251464759E-01
C19  4.859946145952E-01  4.317138406406E-01  3.020793477281E-01
C20  4.396793652335E-01 -4.609980736205E-01 -3.543254708275E-01
H21  3.858042098521E-01 -3.734986779905E-01 -6.353061810871E-02
H22  4.758455724404E-01  3.800621446356E-01  1.417978036457E-01
C23 -4.410469634592E-01  4.581290413988E-01  3.723822894303E-01
C24 -4.871565142519E-01 -4.354125456317E-01 -2.834204167698E-01
C25 -3.792362190478E-01  4.210572166532E-01  2.389492967198E-01
C26 -4.267595459569E-01 -4.751432344380E-01 -4.149020708299E-01
H27 -4.769572228572E-01 -3.834444372131E-01 -1.233951824600E-01
H28 -3.896199880218E-01  3.747431422620E-01  7.690234629045E-02
C29 -3.082653483034E-01  4.412071556175E-01  3.125411401100E-01
C30 -3.515679030949E-01 -4.576503141179E-01 -3.436501942544E-01
H31 -2.626333599772E-01  4.146362213430E-01  2.054302304736E-01
C32 -2.927420455039E-01  4.975955998001E-01 -4.723531182721E-01
H33 -3.419191574238E-01 -4.142801295189E-01 -1.799713125392E-01
C34 -2.146784661651E-01 -4.988841159874E-01 -3.941067647863E-01
C35 -1.925765433786E-01 -3.895739305771E-01 -2.204013667032E-01
C36 -1.601684847646E-01  3.941975137368E-01 -4.928672006756E-01
H37 -2.328260796450E-01 -3.030097335503E-01 -1.428440732290E-01
C38 -1.191331079285E-01 -3.860156823872E-01 -1.489840143268E-01
H39 -1.749154388844E-01  3.045858861965E-01  3.756781273576E-01
C40 -8.663372126742E-02  3.985481937104E-01 -4.224106602146E-01
H41 -1.038796895252E-01 -2.984190603917E-01 -1.562297679803E-02
C42 -6.564816477312E-02 -4.909949114607E-01 -2.508204190817E-01
H43 -4.561437746005E-02  3.159089907442E-01  4.973112722445E-01
H44 -8.011184134202E-03 -4.859600069102E-01 -1.987919386325E-01
C45 -1.601684847646E-01  1.058024862632E-01  7.132799323645E-03
H46 -1.749154388844E-01  1.954141138035E-01 -1.243218726432E-01
C47 -8.663372126742E-02  1.014518062896E-01  7.758933978460E-02
C48 -2.146784661651E-01 -1.115884012650E-03  1.058932352129E-01
H49 -4.561437746005E-02  1.840910092558E-01 -2.688727756285E-03
C50 -6.564816477313E-02 -9.005088539309E-03  2.491795809175E-01
C51 -1.925765433786E-01 -1.104260694229E-01  2.795986332960E-01
C52 -2.927420455039E-01  2.404400199945E-03  2.764688172713E-02
H53 -8.011184134206E-03 -1.403999308977E-02  3.012080613667E-01
C54 -1.191331079285E-01 -1.139843176128E-01  3.510159856724E-01
H55 -2.328260796450E-01 -1.969902664497E-01  3.571559267702E-01
C56 -3.515679030949E-01 -4.234968588207E-02  1.563498057448E-01
C57 -3.082653483034E-01  5.879284438248E-02 -1.874588598908E-01
H58 -1.038796895252E-01 -2.015809396083E-01  4.843770232012E-01
H59 -3.419191574238E-01 -8.571987048109E-02  3.200286874600E-01
C60 -4.267595459569E-01 -2.485676556202E-02  8.509792916933E-02
H61 -2.626333599772E-01  8.536377865696E-02 -2.945697695272E-01
C62 -3.792362190478E-01  7.894278334684E-02 -2.610507032810E-01
C63 -4.871565142519E-01 -6.458745436834E-02  2.165795832294E-01
C64 -4.410469634592E-01  4.187095860120E-02 -1.276177105705E-01
H65 -3.896199880218E-01  1.252568577380E-01 -4.230976537104E-01
H66 -4.769572228572E-01 -1.165555627869E-01  3.766048175392E-01
C67  4.396793652335E-01 -3.900192637949E-02  1.456745291717E-01
C68  4.859946145952E-01  6.828615935936E-02 -1.979206522727E-01
C69  3.767270543725E-01 -7.822114498368E-02  2.744748535233E-01
C70  4.258019371984E-01  2.858643970702E-02 -6.680797080956E-02
H71  4.758455724404E-01  1.199378553644E-01 -3.582021963551E-01
H72  3.858042098521E-01 -1.265013220095E-01  4.364693818905E-01
C73  3.060788486158E-01 -5.910658879597E-02  1.965426786491E-01
C74  3.513189798279E-01  4.621398220035E-02 -1.418406569527E-01
H75  2.601053832624E-01 -8.940782532699E-02  3.009071502227E-01
C76  2.915025090781E-01 -6.446228332428E-04 -1.875359572878E-02
H77  3.434799617306E-01  9.121480715356E-02 -3.055187871841E-01
C78  2.146314989453E-01  1.306134851605E-03 -1.075448289216E-01
C79  1.971662320637E-01  9.239972874470E-02 -2.995768509949E-01
C80  1.569695030946E-01 -9.196077849388E-02 -5.464198879225E-03
H81  2.396359569555E-01  1.672393804573E-01 -3.837147225225E-01
C82  1.254660092862E-01  9.203747074061E-02 -3.850449528795E-01
H83  1.677324906284E-01 -1.693408695747E-01  1.392047175480E-01
C84  8.516659255331E-02 -9.148931580781E-02 -8.998172516559E-02
H85  1.143339885618E-01  1.641264557835E-01  4.663012721815E-01
C86  6.871283465642E-02  1.515550296654E-03 -2.787634154447E-01
H87  4.192753938966E-02 -1.650981593924E-01 -7.713177528343E-03
H88  1.223932006485E-02  3.272950507345E-03 -3.413655145053E-01


#===END
