###############################################################################
#
#                    CRYSTAL17 CIF FILE
#
###############################################################################

data_OPT_STEP_0

_symmetry_space_group_name_H-M 'P 1'
_cell_length_a     17.97300000
_cell_length_b      7.35200000
_cell_length_c      6.24500000
_cell_angle_alpha   90.000000
_cell_angle_beta   90.646004
_cell_angle_gamma   90.000000

loop_
_atom_site_label
_atom_site_fract_x
_atom_site_fract_y
_atom_site_fract_z
C1  1.578219801339E-01 -4.015441797183E-01  4.942718240529E-01
H2  1.699897407448E-01 -3.179446407349E-01 -3.672866628214E-01
C3  8.523984348293E-02 -4.063139855428E-01  4.161295514843E-01
C4  2.146018476940E-01 -4.993521589669E-01  3.939289804951E-01
H5  4.258840854099E-02 -3.296359767314E-01  4.970868956095E-01
C6  6.731043208109E-02  4.917012975088E-01  2.354627732007E-01
C7  1.955753605423E-01  3.999624727889E-01  2.107429566057E-01
C8  2.920653696838E-01 -4.940350227953E-01  4.772940342863E-01
H9  1.034463396881E-02  4.865998799411E-01  1.775093815440E-01
C10  1.230937167544E-01  3.959658075015E-01  1.317020214426E-01
H11  2.374509987473E-01  3.205754816827E-01  1.301795856562E-01
C12  3.515016305331E-01  4.622598902665E-01  3.508112207440E-01
C13  3.070641771457E-01 -4.366119467784E-01 -3.075479456752E-01
H14  1.105044536527E-01  3.158417132212E-01 -9.496254999395E-03
H15  3.428229176508E-01  4.185084032051E-01  1.869566848059E-01
C16  4.263027741091E-01  4.809446925718E-01  4.235809579198E-01
H17  2.612462067291E-01 -4.094260471756E-01 -2.013932959054E-01
C18  3.778929716078E-01 -4.155361681352E-01 -2.322659455213E-01
C19  4.865843346756E-01  4.414666035188E-01  2.921641523199E-01
C20  4.403497623247E-01 -4.521415660181E-01 -3.637345631749E-01
H21  3.875343753367E-01 -3.687359830513E-01 -7.007230772682E-02
H22  4.763813999015E-01  3.893971902592E-01  1.320950615318E-01
C23 -4.403765663680E-01  4.669855490012E-01  3.629731970828E-01
C24 -4.865667941716E-01 -4.256597827535E-01 -2.933356121779E-01
C25 -3.780703018126E-01  4.272999035343E-01  2.322084976745E-01
C26 -4.262587090463E-01 -4.656121021591E-01 -4.245131421013E-01
H27 -4.764213953960E-01 -3.741093915895E-01 -1.330979245740E-01
H28 -3.878898225372E-01  3.795058372012E-01  7.036065667234E-02
C29 -3.072800197735E-01  4.454886200431E-01  3.084505157848E-01
C30 -3.513852523897E-01 -4.491764416511E-01 -3.509983165585E-01
H31 -2.614925365105E-01  4.158023488405E-01  2.031297843446E-01
C32 -2.921791848983E-01 -4.970840458285E-01 -4.763054882578E-01
H33 -3.425762015036E-01 -4.045569191602E-01 -1.874958405499E-01
C34 -2.147081174164E-01 -4.969301401027E-01 -3.926329553704E-01
C35 -1.941674149000E-01 -3.972117290435E-01 -2.100815591034E-01
C36 -1.593160077252E-01  4.006925555246E-01 -4.931311777442E-01
H37 -2.350110378532E-01 -3.151948714104E-01 -1.289497650511E-01
C38 -1.215054004603E-01 -3.980124041451E-01 -1.322370400055E-01
H39 -1.726581887681E-01  3.173003758870E-01  3.691867469874E-01
C40 -8.656047033781E-02  4.007448923598E-01 -4.162993835655E-01
H41 -1.077092244344E-01 -3.184508913871E-01  8.579496020253E-03
C42 -6.705056734840E-02 -4.977780636552E-01 -2.365942304370E-01
H43 -4.495350830867E-02  3.211748546204E-01 -4.978886546184E-01
H44 -9.905870230184E-03 -4.960871764618E-01 -1.799170425840E-01
C45 -1.593160077252E-01  9.930744447538E-02  6.868822255014E-03
H46 -1.726581887681E-01  1.826996241130E-01 -1.308132530134E-01
C47 -8.656047033781E-02  9.925510764023E-02  8.370061643372E-02
C48 -2.147081174165E-01 -3.069859897307E-03  1.073670446288E-01
H49 -4.495350830867E-02  1.788251453796E-01  2.111345380756E-03
C50 -6.705056734840E-02 -2.221936344804E-03  2.634057695622E-01
C51 -1.941674149000E-01 -1.027882709565E-01  2.899184408958E-01
C52 -2.921791848983E-01 -2.915954171518E-03  2.369451174139E-02
H53 -9.905870230187E-03 -3.912823538221E-03  3.200829574152E-01
C54 -1.215054004603E-01 -1.019875958549E-01  3.677629599937E-01
H55 -2.350110378532E-01 -1.848051285896E-01  3.710502349481E-01
C56 -3.513852523897E-01 -5.082355834888E-02  1.490016834407E-01
C57 -3.072800197735E-01  5.451137995688E-02 -1.915494842160E-01
H58 -1.077092244344E-01 -1.815491086129E-01 -4.914205039805E-01
H59 -3.425762015036E-01 -9.544308083977E-02  3.125041594493E-01
C60 -4.262587090463E-01 -3.438789784086E-02  7.548685789788E-02
H61 -2.614925365105E-01  8.419765115955E-02 -2.968702156562E-01
C62 -3.780703018126E-01  7.270009646572E-02 -2.677915023263E-01
C63 -4.865667941716E-01 -7.434021724646E-02  2.066643878212E-01
C64 -4.403765663680E-01  3.301445099878E-02 -1.370268029180E-01
H65 -3.878898225372E-01  1.204941627988E-01 -4.296393433285E-01
H66 -4.764213953960E-01 -1.258906084105E-01  3.669020754252E-01
C67  4.403497623247E-01 -4.785843398191E-02  1.362654368243E-01
C68  4.865843346756E-01  5.853339648123E-02 -2.078358476809E-01
C69  3.778929716078E-01 -8.446383186480E-02  2.677340544779E-01
C70  4.263027741091E-01  1.905530742818E-02 -7.641904208101E-02
H71  4.763813999015E-01  1.106028097408E-01 -3.679049384690E-01
H72  3.875343753367E-01 -1.312640169487E-01  4.299276922724E-01
C73  3.070641771457E-01 -6.338805322157E-02  1.924520543240E-01
C74  3.515016305331E-01  3.774010973354E-02 -1.491887792568E-01
H75  2.612462067291E-01 -9.057395282440E-02  2.986067040938E-01
C76  2.920653696838E-01 -5.964977204706E-03 -2.270596571452E-02
H77  3.428229176508E-01  8.149159679489E-02 -3.130433151949E-01
C78  2.146018476940E-01 -6.478410330524E-04 -1.060710195057E-01
C79  1.955753605423E-01  1.000375272111E-01 -2.892570433951E-01
C80  1.578219801339E-01 -9.845582028169E-02 -5.728175947857E-03
H81  2.374509987473E-01  1.794245183173E-01 -3.698204143446E-01
C82  1.230937167544E-01  1.040341924985E-01 -3.682979785582E-01
H83  1.699897407448E-01 -1.820553592651E-01  1.327133371778E-01
C84  8.523984348292E-02 -9.368601445715E-02 -8.387044851648E-02
H85  1.105044536527E-01  1.841582867788E-01  4.905037449998E-01
C86  6.731043208109E-02  8.298702491159E-03 -2.645372268001E-01
H87  4.258840854098E-02 -1.703640232686E-01 -2.913104391301E-03
H88  1.034463396881E-02  1.340012005890E-02 -3.224906184568E-01


#===END
