###############################################################################
#
#                    CRYSTAL17 CIF FILE
#
###############################################################################

data_OPT_STEP_0

_symmetry_space_group_name_H-M 'P 1'
_cell_length_a     17.97300000
_cell_length_b      7.35200000
_cell_length_c      6.24500000
_cell_angle_alpha   90.000000
_cell_angle_beta   90.646004
_cell_angle_gamma   90.000000

loop_
_atom_site_label
_atom_site_fract_x
_atom_site_fract_y
_atom_site_fract_z
C1  1.516360201298E-01 -4.017487619641E-01  4.912406598066E-01
H2  1.641858269946E-01 -3.174240043126E-01 -3.712290112597E-01
C3  7.903128093670E-02 -4.061980649022E-01  4.139834497891E-01
C4  2.080312398212E-01  4.989407333441E-01  3.914706540634E-01
H5  3.655402624992E-02 -3.290544049800E-01  4.948804617366E-01
C6  6.063300091574E-02  4.909295030413E-01  2.343386167649E-01
C7  1.886469682300E-01  3.977519105847E-01  2.089877939513E-01
C8  2.853672502147E-01 -4.968137727969E-01  4.751670798738E-01
H9  3.620332800557E-03  4.861378934664E-01  1.774270102986E-01
C10  1.161394371812E-01  3.942647790695E-01  1.306077213295E-01
H11  2.302867291533E-01  3.177131024784E-01  1.285648401066E-01
C12  3.447142405045E-01  4.571235267450E-01  3.498929412986E-01
C13  3.002664206067E-01 -4.388067650326E-01 -3.096587957393E-01
H14  1.033908557054E-01  3.137294555933E-01 -1.020133472127E-02
H15  3.360931322627E-01  4.126233594845E-01  1.863059908784E-01
C16  4.194430664767E-01  4.743614746449E-01  4.234466343758E-01
H17  2.543508881654E-01 -4.101517659170E-01 -2.045432566369E-01
C18  3.709740673795E-01 -4.193760613606E-01 -2.334951521368E-01
C19  4.796705739765E-01  4.347999830597E-01  2.922372220098E-01
C20  4.334642018595E-01 -4.583413837578E-01 -3.639062748103E-01
H21  3.806115309047E-01 -3.716512710918E-01 -7.153919260477E-02
H22  4.695085486735E-01  3.834790895608E-01  1.318660374521E-01
C23 -4.472621268331E-01  4.607857312616E-01  3.628014854474E-01
C24 -4.934805548707E-01 -4.323264032126E-01 -2.932625424881E-01
C25 -3.849892060409E-01  4.234600103089E-01  2.309792910589E-01
C26 -4.331184166787E-01 -4.721953200861E-01 -4.246474656453E-01
H27 -4.832942466240E-01 -3.800274922879E-01 -1.333269486536E-01
H28 -3.948126669693E-01  3.765905491606E-01  6.889377179439E-02
C29 -3.140777763125E-01  4.432938017889E-01  3.063396657207E-01
C30 -3.581726424183E-01 -4.543128051726E-01 -3.519165960038E-01
H31 -2.683878550742E-01  4.150766300990E-01  1.999798236132E-01
C32 -2.988773043673E-01 -4.998627958301E-01 -4.784324426702E-01
H33 -3.493059868917E-01 -4.104419628808E-01 -1.881465344774E-01
C34 -2.212787252892E-01 -4.986372477916E-01 -3.950912818020E-01
C35 -2.010958072123E-01 -3.994222912477E-01 -2.118367217579E-01
C36 -1.655019677293E-01  4.004879732788E-01 -4.961623419905E-01
H37 -2.421753074471E-01 -3.180572506147E-01 -1.305645106007E-01
C38 -1.284596800335E-01 -3.997134325771E-01 -1.333313401187E-01
H39 -1.784621025182E-01  3.178210123093E-01  3.652443985491E-01
C40 -9.276903288409E-02  4.008608130004E-01 -4.184454852607E-01
H41 -1.148228223816E-01 -3.205631490150E-01  7.874416298373E-03
C42 -7.372799851381E-02 -4.985498581227E-01 -2.377183868729E-01
H43 -5.098789059974E-02  3.217564263717E-01  4.999049115087E-01
H44 -1.663017139844E-02 -4.965491629365E-01 -1.799994138294E-01
C45 -1.516360201298E-01  9.825123803591E-02  8.759340192557E-03
H46 -1.641858269946E-01  1.825759956874E-01 -1.287709887411E-01
C47 -7.903128093670E-02  9.380193509780E-02  8.601655021014E-02
C48 -2.080312398212E-01 -1.059266655876E-03  1.085293459358E-01
H49 -3.655402624992E-02  1.709455950200E-01  5.119538262572E-03
C50 -6.063300091574E-02 -9.070496958651E-03  2.656613832343E-01
C51 -1.886469682300E-01 -1.022480894153E-01  2.910122060479E-01
C52 -2.853672502147E-01  3.186227203074E-03  2.483292012536E-02
H53 -3.620332800560E-03 -1.386210653360E-02  3.225729897005E-01
C54 -1.161394371812E-01 -1.057352209305E-01  3.693922786697E-01
H55 -2.302867291533E-01 -1.822868975216E-01  3.714351598926E-01
C56 -3.447142405045E-01 -4.287647325503E-02  1.501070587006E-01
C57 -3.002664206067E-01  6.119323496736E-02 -1.903412042615E-01
H58 -1.033908557054E-01 -1.862705444067E-01 -4.897986652795E-01
H59 -3.360931322628E-01 -8.737664051551E-02  3.136940091208E-01
C60 -4.194430664767E-01 -2.563852535514E-02  7.655336562339E-02
H61 -2.543508881654E-01  8.984823408297E-02 -2.954567433639E-01
C62 -3.709740673795E-01  8.062393863942E-02 -2.665048478640E-01
C63 -4.796705739765E-01 -6.520001694029E-02  2.077627779894E-01
C64 -4.334642018595E-01  4.165861624225E-02 -1.360937251905E-01
H65 -3.806115309047E-01  1.283487289082E-01 -4.284608073960E-01
H66 -4.695085486735E-01 -1.165209104392E-01  3.681339625471E-01
C67  4.472621268331E-01 -3.921426873844E-02  1.371985145518E-01
C68  4.934805548707E-01  6.767359678740E-02 -2.067374575127E-01
C69  3.849892060409E-01 -7.653998969110E-02  2.690207089403E-01
C70  4.331184166787E-01  2.780467991390E-02 -7.535253435551E-02
H71  4.832942466240E-01  1.199725077121E-01 -3.666730513472E-01
H72  3.948126669693E-01 -1.234094508394E-01  4.311062282048E-01
C73  3.140777763125E-01 -5.670619821110E-02  1.936603342785E-01
C74  3.581726424183E-01  4.568719482739E-02 -1.480834039970E-01
H75  2.683878550742E-01 -8.492336990098E-02  3.000201763860E-01
C76  2.988773043673E-01  1.372041698857E-04 -2.156755733056E-02
H77  3.493059868917E-01  8.955803711915E-02 -3.118534655234E-01
C78  2.212787252892E-01  1.362752208378E-03 -1.049087181988E-01
C79  2.010958072123E-01  1.005777087523E-01 -2.881632782429E-01
C80  1.655019677293E-01 -9.951202672116E-02 -3.837658010314E-03
H81  2.421753074471E-01  1.819427493853E-01 -3.694354894001E-01
C82  1.284596800335E-01  1.002865674229E-01 -3.666686598821E-01
H83  1.784621025182E-01 -1.821789876907E-01  1.347556014501E-01
C84  9.276903288409E-02 -9.913918699959E-02 -8.155451474005E-02
H85  1.148228223816E-01  1.794368509850E-01  4.921255837008E-01
C86  7.372799851380E-02  1.450141877312E-03 -2.622816131279E-01
H87  5.098789059973E-02 -1.782435736283E-01  9.508849051451E-05
H88  1.663017139844E-02  3.450837063520E-03 -3.200005861714E-01


#===END
