###############################################################################
#
#                    CRYSTAL17 CIF FILE
#
###############################################################################

data_OPT_STEP_0

_symmetry_space_group_name_H-M 'P 1'
_cell_length_a     17.97300000
_cell_length_b      7.35200000
_cell_length_c      6.24500000
_cell_angle_alpha   90.000000
_cell_angle_beta   90.646004
_cell_angle_gamma   90.000000

loop_
_atom_site_label
_atom_site_fract_x
_atom_site_fract_y
_atom_site_fract_z
C1  1.592820867455E-01 -4.012054673968E-01  4.926735390131E-01
H2  1.728458800496E-01 -3.182423057605E-01 -3.694968653138E-01
C3  8.651524641752E-02 -4.001346572006E-01  4.161079880087E-01
C4  2.144726433743E-01  4.958760697383E-01  3.916419367710E-01
H5  4.509786225770E-02 -3.203067911423E-01  4.982268425270E-01
C6  6.673793972764E-02  4.991232616277E-01  2.360175941214E-01
C7  1.937036830773E-01  3.971840177161E-01  2.084555860869E-01
C8  2.920035108534E-01  4.959819956635E-01  4.754681740482E-01
H9  9.526440685342E-03  4.982033788836E-01  1.796958491417E-01
C10  1.209957741765E-01  3.991529420535E-01  1.308522823342E-01
H11  2.344091512014E-01  3.153364425986E-01  1.264695154811E-01
C12  3.514883177149E-01  4.473005826840E-01  3.515118299721E-01
C13  3.069002789709E-01 -4.439622213402E-01 -3.099624001689E-01
H14  1.070424250288E-01  3.202479143883E-01 -1.043575312058E-02
H15  3.430695485691E-01  3.997628835989E-01  1.888807728133E-01
C16  4.263011275774E-01  4.680862016521E-01  4.248019634943E-01
H17  2.610175383028E-01 -4.153938586597E-01 -2.046378159487E-01
C18  3.775422102379E-01 -4.216496228343E-01 -2.341881678866E-01
C19  4.870086446186E-01  4.283100508580E-01  2.950400875029E-01
C20  4.401271486884E-01 -4.594778035335E-01 -3.647704939698E-01
H21  3.870156837385E-01 -3.725385222731E-01 -7.279697213221E-02
H22  4.773810943903E-01  3.733449773186E-01  1.360641632398E-01
C23 -4.401271486884E-01  4.594778035335E-01  3.647704939698E-01
C24 -4.870086446186E-01 -4.283100508580E-01 -2.950400875029E-01
C25 -3.775422102379E-01  4.216496228343E-01  2.341881678866E-01
C26 -4.263011275774E-01 -4.680862016521E-01 -4.248019634943E-01
H27 -4.773810943903E-01 -3.733449773186E-01 -1.360641632398E-01
H28 -3.870156837385E-01  3.725385222731E-01  7.279697213221E-02
C29 -3.069002789709E-01  4.439622213402E-01  3.099624001689E-01
C30 -3.514883177149E-01 -4.473005826840E-01 -3.515118299721E-01
H31 -2.610175383028E-01  4.153938586597E-01  2.046378159487E-01
C32 -2.920035108534E-01 -4.959819956635E-01 -4.754681740482E-01
H33 -3.430695485691E-01 -3.997628835989E-01 -1.888807728133E-01
C34 -2.144726433743E-01 -4.958760697383E-01 -3.916419367710E-01
C35 -1.937036830773E-01 -3.971840177161E-01 -2.084555860869E-01
C36 -1.592820867455E-01  4.012054673968E-01 -4.926735390131E-01
H37 -2.344091512014E-01 -3.153364425986E-01 -1.264695154811E-01
C38 -1.209957741765E-01 -3.991529420535E-01 -1.308522823342E-01
H39 -1.728458800496E-01  3.182423057605E-01  3.694968653138E-01
C40 -8.651524641752E-02  4.001346572006E-01 -4.161079880087E-01
H41 -1.070424250288E-01 -3.202479143883E-01  1.043575312058E-02
C42 -6.673793972764E-02 -4.991232616277E-01 -2.360175941214E-01
H43 -4.509786225770E-02  3.203067911423E-01 -4.982268425270E-01
H44 -9.526440685342E-03 -4.982033788836E-01 -1.796958491417E-01
C45 -1.592820867455E-01  9.879453260324E-02  7.326460986052E-03
H46 -1.728458800496E-01  1.817576942395E-01 -1.305031346870E-01
C47 -8.651524641753E-02  9.986534279937E-02  8.389201199052E-02
C48 -2.144726433743E-01 -4.123930261698E-03  1.083580632282E-01
H49 -4.509786225770E-02  1.796932088577E-01  1.773157472233E-03
C50 -6.673793972764E-02 -8.767383722797E-04  2.639824058778E-01
C51 -1.937036830773E-01 -1.028159822839E-01  2.915444139123E-01
C52 -2.920035108534E-01 -4.018004336507E-03  2.453182595101E-02
H53 -9.526440685345E-03 -1.796621116431E-03  3.203041508575E-01
C54 -1.209957741765E-01 -1.008470579465E-01  3.691477176650E-01
H55 -2.344091512014E-01 -1.846635574014E-01  3.735304845181E-01
C56 -3.514883177149E-01 -5.269941731597E-02  1.484881700271E-01
C57 -3.069002789709E-01  5.603777865982E-02 -1.900375998319E-01
H58 -1.070424250288E-01 -1.797520856117E-01 -4.895642468802E-01
H59 -3.430695485691E-01 -1.002371164011E-01  3.111192271859E-01
C60 -4.263011275774E-01 -3.191379834793E-02  7.519803650489E-02
H61 -2.610175383028E-01  8.460614134032E-02 -2.953621840521E-01
C62 -3.775422102379E-01  7.835037716567E-02 -2.658118321142E-01
C63 -4.870086446186E-01 -7.168994914200E-02  2.049599124963E-01
C64 -4.401271486884E-01  4.052219646654E-02 -1.352295060310E-01
H65 -3.870156837385E-01  1.274614777269E-01 -4.272030278686E-01
H66 -4.773810943903E-01 -1.266550226814E-01  3.639358367594E-01
C67  4.401271486884E-01 -4.052219646654E-02  1.352295060294E-01
C68  4.870086446186E-01  7.168994914200E-02 -2.049599124979E-01
C69  3.775422102379E-01 -7.835037716567E-02  2.658118321126E-01
C70  4.263011275774E-01  3.191379834793E-02 -7.519803650649E-02
H71  4.773810943903E-01  1.266550226814E-01 -3.639358367610E-01
H72  3.870156837385E-01 -1.274614777269E-01  4.272030278670E-01
C73  3.069002789709E-01 -5.603777865982E-02  1.900375998302E-01
C74  3.514883177149E-01  5.269941731597E-02 -1.484881700287E-01
H75  2.610175383028E-01 -8.460614134032E-02  2.953621840505E-01
C76  2.920035108533E-01  4.018004336507E-03 -2.453182595261E-02
H77  3.430695485691E-01  1.002371164011E-01 -3.111192271875E-01
C78  2.144726433743E-01  4.123930261697E-03 -1.083580632298E-01
C79  1.937036830773E-01  1.028159822839E-01 -2.915444139139E-01
C80  1.592820867455E-01 -9.879453260324E-02 -7.326460987654E-03
H81  2.344091512014E-01  1.846635574014E-01 -3.735304845197E-01
C82  1.209957741765E-01  1.008470579465E-01 -3.691477176666E-01
H83  1.728458800496E-01 -1.817576942395E-01  1.305031346854E-01
C84  8.651524641752E-02 -9.986534279937E-02 -8.389201199212E-02
H85  1.070424250288E-01  1.797520856117E-01  4.895642468786E-01
C86  6.673793972763E-02  8.767383722794E-04 -2.639824058794E-01
H87  4.509786225769E-02 -1.796932088577E-01 -1.773157473835E-03
H88  9.526440685339E-03  1.796621116431E-03 -3.203041508591E-01


#===END
