###############################################################################
#
#                    CRYSTAL17 CIF FILE
#
###############################################################################

data_OPT_STEP_0

_symmetry_space_group_name_H-M 'P 1'
_cell_length_a     17.97300000
_cell_length_b      7.35200000
_cell_length_c      6.24500000
_cell_angle_alpha   90.000000
_cell_angle_beta   90.646004
_cell_angle_gamma   90.000000

loop_
_atom_site_label
_atom_site_fract_x
_atom_site_fract_y
_atom_site_fract_z
C1  1.583835210181E-01 -3.984655812027E-01  4.919688877931E-01
H2  1.709195191575E-01 -3.139634374081E-01 -3.707193957308E-01
C3  8.539447690012E-02 -4.045790898063E-01  4.171729875494E-01
C4  2.148166547919E-01 -4.970883571964E-01  3.909646106692E-01
H5  4.303643229136E-02 -3.279179591608E-01  4.994452428304E-01
C6  6.665683649370E-02  4.915647535253E-01  2.386716472287E-01
C7  1.950616364833E-01  4.017643517962E-01  2.086767214019E-01
C8  2.922940337151E-01 -4.943868584066E-01  4.748606569248E-01
H9  9.366922528890E-03  4.849627118171E-01  1.836478068215E-01
C10  1.221634469446E-01  3.963746109293E-01  1.329841347520E-01
H11  2.365853896723E-01  3.225088880329E-01  1.264476068904E-01
C12  3.516401968272E-01  4.538342274310E-01  3.518775410460E-01
C13  3.073210506311E-01 -4.330808603570E-01 -3.113391385703E-01
H14  1.090077286969E-01  3.153361310431E-01 -7.102015930354E-03
H15  3.431391612415E-01  4.069691571673E-01  1.890781680457E-01
C16  4.264289011148E-01  4.693878174131E-01  4.262771406481E-01
H17  2.615416608592E-01 -3.992414897748E-01 -2.075799276614E-01
C18  3.780623967404E-01 -4.178070105484E-01 -2.333523477346E-01
C19  4.867506788141E-01  4.288534002140E-01  2.953822816541E-01
C20  4.405156516305E-01 -4.621052016109E-01 -3.616728592591E-01
H21  3.876525334724E-01 -3.689272619055E-01 -7.189078189576E-02
H22  4.765983592318E-01  3.773804358730E-01  1.350526515155E-01
C23 -4.402106770621E-01  4.570219134085E-01  3.650349009986E-01
C24 -4.864004500331E-01 -4.382729860584E-01 -2.901174828438E-01
C25 -3.779008766800E-01  4.250290611211E-01  2.311220954611E-01
C26 -4.261325820406E-01 -4.771689773179E-01 -4.218169593730E-01
H27 -4.762044360657E-01 -3.861261459758E-01 -1.301403345902E-01
H28 -3.877716644015E-01  3.793145583470E-01  6.854218250340E-02
C29 -3.070231462881E-01  4.490197064645E-01  3.046593228898E-01
C30 -3.512466860956E-01 -4.576021044865E-01 -3.499319962564E-01
H31 -2.611970823804E-01  4.259869062413E-01  1.969431525887E-01
C32 -2.919505208670E-01 -4.974358814397E-01 -4.787388656193E-01
H33 -3.422599579130E-01 -4.160961651980E-01 -1.853743573101E-01
C34 -2.144933103185E-01 -4.946663383322E-01 -3.955973251963E-01
C35 -1.946811389591E-01 -3.954098500362E-01 -2.121477943072E-01
C36 -1.587544668410E-01  4.037711540403E-01 -4.954341140040E-01
H37 -2.358766469282E-01 -3.132614650601E-01 -1.326817438169E-01
C38 -1.224356702700E-01 -3.976036007174E-01 -1.309549266962E-01
H39 -1.717284103553E-01  3.212815792138E-01  3.657540140780E-01
C40 -8.640583692066E-02  4.024797880963E-01 -4.152559475004E-01
H41 -1.092059493901E-01 -3.189564735652E-01  1.097373508929E-02
C42 -6.770416293579E-02 -4.979146076387E-01 -2.333853564090E-01
H43 -4.450548455835E-02  3.228928721910E-01 -4.955303073976E-01
H44 -1.088358167016E-02 -4.977243445858E-01 -1.737786173065E-01
C45 -1.587544668410E-01  9.622884595974E-02  4.565885995193E-03
H46 -1.717284103554E-01  1.787184207862E-01 -1.342459859228E-01
C47 -8.640583692067E-02  9.752021190370E-02  8.474405249884E-02
C48 -2.144933103185E-01 -5.333661667846E-03  1.044026748029E-01
H49 -4.450548455835E-02  1.771071278090E-01  4.469692601623E-03
C50 -6.770416293579E-02 -2.085392361262E-03  2.666146435902E-01
C51 -1.946811389591E-01 -1.045901499638E-01  2.878522056920E-01
C52 -2.919505208670E-01 -2.564118560256E-03  2.126113437988E-02
H53 -1.088358167016E-02 -2.275655414173E-03  3.262213826927E-01
C54 -1.224356702700E-01 -1.023963992826E-01  3.690450733030E-01
H55 -2.358766469282E-01 -1.867385349399E-01  3.673182561823E-01
C56 -3.512466860957E-01 -4.239789551347E-02  1.500680037428E-01
C57 -3.070231462881E-01  5.098029353550E-02 -1.953406771110E-01
H58 -1.092059493901E-01 -1.810435264348E-01 -4.890262649115E-01
H59 -3.422599579130E-01 -8.390383480196E-02  3.146256426891E-01
C60 -4.261325820406E-01 -2.283102268213E-02  7.818304062617E-02
H61 -2.611970823804E-01  7.401309375871E-02 -3.030568474121E-01
C62 -3.779008766800E-01  7.497093887894E-02 -2.688779045397E-01
C63 -4.864004500331E-01 -6.172701394165E-02  2.098825171554E-01
C64 -4.402106770621E-01  4.297808659154E-02 -1.349650990022E-01
H65 -3.877716644015E-01  1.206854416530E-01 -4.314578174974E-01
H66 -4.762044360657E-01 -1.138738540242E-01  3.698596654090E-01
C67  4.405156516305E-01 -3.789479838915E-02  1.383271407401E-01
C68  4.867506788141E-01  7.114659978604E-02 -2.046177183467E-01
C69  3.780623967404E-01 -8.219298945158E-02  2.666476522646E-01
C70  4.264289011148E-01  3.061218258691E-02 -7.372285935272E-02
H71  4.765983592318E-01  1.226195641270E-01 -3.649473484853E-01
H72  3.876525334724E-01 -1.310727380945E-01  4.281092181034E-01
C73  3.073210506311E-01 -6.691913964295E-02  1.886608614289E-01
C74  3.516401968272E-01  4.616577256896E-02 -1.481224589548E-01
H75  2.615416608592E-01 -1.007585102252E-01  2.924200723378E-01
C76  2.922940337151E-01 -5.613141593444E-03 -2.513934307604E-02
H77  3.431391612415E-01  9.303084283270E-02 -3.109218319551E-01
C78  2.148166547919E-01 -2.911642803591E-03 -1.090353893316E-01
C79  1.950616364833E-01  9.823564820375E-02 -2.913232785989E-01
C80  1.583835210181E-01 -1.015344187973E-01 -8.031112207678E-03
H81  2.365853896723E-01  1.774911119671E-01 -3.735523931104E-01
C82  1.221634469446E-01  1.036253890707E-01 -3.670158652488E-01
H83  1.709195191575E-01 -1.860365625919E-01  1.292806042684E-01
C84  8.539447690012E-02 -9.542091019369E-02 -8.282701245135E-02
H85  1.090077286969E-01  1.846638689569E-01  4.928979840688E-01
C86  6.665683649370E-02  8.435246474701E-03 -2.613283527721E-01
H87  4.303643229136E-02 -1.720820408392E-01 -5.547571704344E-04
H88  9.366922528887E-03  1.503728818294E-02 -3.163521931793E-01


#===END
