###############################################################################
#
#                    CRYSTAL17 CIF FILE
#
###############################################################################

data_OPT_STEP_0

_symmetry_space_group_name_H-M 'P 1'
_cell_length_a     17.97300000
_cell_length_b      7.35200000
_cell_length_c      6.24500000
_cell_angle_alpha   90.000000
_cell_angle_beta   90.646004
_cell_angle_gamma   90.000000

loop_
_atom_site_label
_atom_site_fract_x
_atom_site_fract_y
_atom_site_fract_z
C1  1.596521801640E-01 -3.926028294619E-01  4.935954031946E-01
H2  1.739138892461E-01 -3.013240597537E-01 -3.758766602009E-01
C3  8.663345989512E-02 -3.952757867644E-01  4.185165641230E-01
C4  2.143288224994E-01  4.973124454276E-01  4.003405430609E-01
H5  4.563216149073E-02 -3.092085001828E-01  4.943311397107E-01
C6  6.616229551627E-02  4.920442561449E-01  2.481435356664E-01
C7  1.927758026914E-01  3.853596299476E-01  2.281634652240E-01
C8  2.920748826256E-01 -4.992620101707E-01  4.812933901562E-01
H9  8.890264601513E-03  4.886626084682E-01  1.922192982755E-01
C10  1.198398733420E-01  3.828996600393E-01  1.525258365157E-01
H11  2.330693807511E-01  2.957952729514E-01  1.550805081449E-01
C12  3.510221370930E-01  4.554051465396E-01  3.536491059435E-01
C13  3.075142588930E-01 -4.421766744165E-01 -3.037393038314E-01
H14  1.050777273785E-01  2.929586079897E-01  2.062374532077E-02
H15  3.415389942989E-01  4.118054338939E-01  1.899420356832E-01
C16  4.261012547340E-01  4.731287372059E-01  4.251948665427E-01
H17  2.617034081503E-01 -4.148036989321E-01 -1.973550652711E-01
C18  3.785294467637E-01 -4.225313491026E-01 -2.295110461960E-01
C19  4.861671519515E-01  4.340531628720E-01  2.926903549749E-01
C20  4.405869472890E-01 -4.601678904990E-01 -3.620705195567E-01
H21  3.886499424057E-01 -3.757340390044E-01 -6.742195351913E-02
H22  4.756719372385E-01  3.824820586060E-01  1.325793661220E-01
C23 -4.405869472890E-01  4.601678904990E-01  3.620705195567E-01
C24 -4.861671519515E-01 -4.340531628720E-01 -2.926903549749E-01
C25 -3.785294467637E-01  4.225313491026E-01  2.295110461960E-01
C26 -4.261012547340E-01 -4.731287372059E-01 -4.251948665427E-01
H27 -4.756719372385E-01 -3.824820586060E-01 -1.325793661220E-01
H28 -3.886499424057E-01  3.757340390044E-01  6.742195351913E-02
C29 -3.075142588930E-01  4.421766744165E-01  3.037393038314E-01
C30 -3.510221370930E-01 -4.554051465396E-01 -3.536491059435E-01
H31 -2.617034081503E-01  4.148036989321E-01  1.973550652711E-01
C32 -2.920748826256E-01  4.992620101707E-01 -4.812933901562E-01
H33 -3.415389942989E-01 -4.118054338939E-01 -1.899420356832E-01
C34 -2.143288224994E-01 -4.973124454276E-01 -4.003405430609E-01
C35 -1.927758026914E-01 -3.853596299476E-01 -2.281634652240E-01
C36 -1.596521801640E-01  3.926028294619E-01 -4.935954031946E-01
H37 -2.330693807511E-01 -2.957952729514E-01 -1.550805081449E-01
C38 -1.198398733420E-01 -3.828996600393E-01 -1.525258365157E-01
H39 -1.739138892461E-01  3.013240597537E-01  3.758766602009E-01
C40 -8.663345989512E-02  3.952757867644E-01 -4.185165641230E-01
H41 -1.050777273785E-01 -2.929586079897E-01 -2.062374532077E-02
C42 -6.616229551627E-02 -4.920442561449E-01 -2.481435356664E-01
H43 -4.563216149073E-02  3.092085001828E-01 -4.943311397107E-01
H44 -8.890264601513E-03 -4.886626084682E-01 -1.922192982755E-01
C45 -1.596521801640E-01  1.073971705381E-01  6.404596804596E-03
H46 -1.739138892461E-01  1.986759402463E-01 -1.241233397999E-01
C47 -8.663345989512E-02  1.047242132356E-01  8.148343587617E-02
C48 -2.143288224995E-01 -2.687554572361E-03  9.965945693826E-02
H49 -4.563216149073E-02  1.907914998172E-01  5.668860288504E-03
C50 -6.616229551628E-02 -7.955743855141E-03  2.518564643328E-01
C51 -1.927758026914E-01 -1.146403700524E-01  2.718365347752E-01
C52 -2.920748826256E-01  7.379898292981E-04  1.870660984303E-02
H53 -8.890264601516E-03 -1.133739153183E-02  3.077807017237E-01
C54 -1.198398733420E-01 -1.171003399607E-01  3.474741634835E-01
H55 -2.330693807512E-01 -2.042047270486E-01  3.449194918543E-01
C56 -3.510221370930E-01 -4.459485346042E-02  1.463508940557E-01
C57 -3.075142588930E-01  5.782332558351E-02 -1.962606961694E-01
H58 -1.050777273785E-01 -2.070413920103E-01  4.793762546784E-01
H59 -3.415389942989E-01 -8.819456610609E-02  3.100579643160E-01
C60 -4.261012547340E-01 -2.687126279407E-02  7.480513345649E-02
H61 -2.617034081503E-01  8.519630106787E-02 -3.026449347297E-01
C62 -3.785294467637E-01  7.746865089744E-02 -2.704889538048E-01
C63 -4.861671519515E-01 -6.594683712799E-02  2.073096450243E-01
C64 -4.405869472890E-01  3.983210950095E-02 -1.379294804441E-01
H65 -3.886499424057E-01  1.242659609956E-01 -4.325780464817E-01
H66 -4.756719372385E-01 -1.175179413940E-01  3.674206338772E-01
C67  4.405869472890E-01 -3.983210950095E-02  1.379294804425E-01
C68  4.861671519515E-01  6.594683712799E-02 -2.073096450259E-01
C69  3.785294467637E-01 -7.746865089744E-02  2.704889538032E-01
C70  4.261012547340E-01  2.687126279407E-02 -7.480513345809E-02
H71  4.756719372385E-01  1.175179413940E-01 -3.674206338788E-01
H72  3.886499424057E-01 -1.242659609956E-01  4.325780464801E-01
C73  3.075142588930E-01 -5.782332558351E-02  1.962606961678E-01
C74  3.510221370930E-01  4.459485346042E-02 -1.463508940573E-01
H75  2.617034081503E-01 -8.519630106787E-02  3.026449347281E-01
C76  2.920748826256E-01 -7.379898292983E-04 -1.870660984463E-02
H77  3.415389942989E-01  8.819456610609E-02 -3.100579643176E-01
C78  2.143288224994E-01  2.687554572361E-03 -9.965945693986E-02
C79  1.927758026914E-01  1.146403700524E-01 -2.718365347768E-01
C80  1.596521801640E-01 -1.073971705381E-01 -6.404596806198E-03
H81  2.330693807511E-01  2.042047270486E-01 -3.449194918559E-01
C82  1.198398733420E-01  1.171003399607E-01 -3.474741634851E-01
H83  1.739138892461E-01 -1.986759402463E-01  1.241233397983E-01
C84  8.663345989512E-02 -1.047242132356E-01 -8.148343587777E-02
H85  1.050777273785E-01  2.070413920103E-01 -4.793762546800E-01
C86  6.616229551627E-02  7.955743855141E-03 -2.518564643344E-01
H87  4.563216149073E-02 -1.907914998172E-01 -5.668860290106E-03
H88  8.890264601510E-03  1.133739153183E-02 -3.077807017253E-01


#===END
