###############################################################################
#
#                    CRYSTAL17 CIF FILE
#
###############################################################################

data_OPT_STEP_0

_symmetry_space_group_name_H-M 'P 1'
_cell_length_a     17.97300000
_cell_length_b      7.35200000
_cell_length_c      6.24500000
_cell_angle_alpha   90.000000
_cell_angle_beta   90.646004
_cell_angle_gamma   90.000000

loop_
_atom_site_label
_atom_site_fract_x
_atom_site_fract_y
_atom_site_fract_z
C1  1.577761021157E-01 -4.012215465046E-01  4.982386317420E-01
H2  1.695960454866E-01 -3.158541267933E-01 -3.645341543567E-01
C3  8.569051099871E-02 -4.049155703515E-01  4.160478688909E-01
C4  2.146194291643E-01  4.974418777572E-01  4.032976762610E-01
H5  4.285879093078E-02 -3.257748789019E-01  4.930035906657E-01
C6  6.840770968877E-02  4.907376609049E-01  2.367232712572E-01
C7  1.962271957649E-01  3.936609064879E-01  2.217718967804E-01
C8  2.916787845616E-01 -4.975012329771E-01  4.898188828799E-01
H9  1.179680509491E-02  4.866570144219E-01  1.755852011775E-01
C10  1.242658108931E-01  3.908841973050E-01  1.385689706545E-01
H11  2.381754025433E-01  3.110886077810E-01  1.458300487073E-01
C12  3.512927026463E-01  4.581640976289E-01  3.645602326583E-01
C13  3.063370189567E-01 -4.396930437413E-01 -2.948006428754E-01
H14  1.120854550795E-01  3.085420252057E-01 -1.289502537699E-03
H15  3.429117026815E-01  4.142137134792E-01  2.005671392588E-01
C16  4.259108508347E-01  4.768806494323E-01  4.384074708099E-01
H17  2.602467046506E-01 -4.120209987301E-01 -1.896965359798E-01
C18  3.770903052035E-01 -4.186967432561E-01 -2.185751965156E-01
C19  4.861318412243E-01  4.373834582478E-01  3.070224887532E-01
C20  4.398316524581E-01 -4.558943154163E-01 -3.489457871549E-01
H21  3.864792623804E-01 -3.709699064140E-01 -5.653800216636E-02
H22  4.759536834848E-01  3.854325482353E-01  1.467765084063E-01
C23 -4.408946762345E-01  4.632327996030E-01  3.777619731029E-01
C24 -4.870192876228E-01 -4.297429280245E-01 -2.784772757447E-01
C25 -3.788729682169E-01  4.241393284134E-01  2.458992466801E-01
C26 -4.266506323207E-01 -4.696761452987E-01 -4.096866292112E-01
H27 -4.768491118128E-01 -3.780740336134E-01 -1.184164776995E-01
H28 -3.889449354936E-01  3.772719138384E-01  8.389496223280E-02
C29 -3.080071779624E-01  4.424075230803E-01  3.211978185846E-01
C30 -3.515941802765E-01 -4.532722342886E-01 -3.372493046441E-01
H31 -2.624920385890E-01  4.132073972859E-01  2.148265442703E-01
C32 -2.925657700204E-01  4.994497439897E-01 -4.637806396642E-01
H33 -3.424874164729E-01 -4.088516088862E-01 -1.738853860970E-01
C34 -2.146905359461E-01  4.998638966215E-01 -3.832642596045E-01
C35 -1.935155796774E-01 -4.035132953445E-01 -1.990526189288E-01
C36 -1.593618857435E-01  4.010151887383E-01 -4.891643700552E-01
H37 -2.342866340571E-01 -3.246817453120E-01 -1.132993020000E-01
C38 -1.203333063216E-01 -4.030940143417E-01 -1.253700907937E-01
H39 -1.730518840263E-01  3.193908898286E-01  3.719392554520E-01
C40 -8.610980282208E-02  4.021433075511E-01 -4.163810661589E-01
H41 -1.061282230075E-01 -3.257505794026E-01  1.678624848195E-02
C42 -6.595328974077E-02 -4.987417002591E-01 -2.353337323805E-01
H43 -4.468312591888E-02  3.250359524498E-01  4.980280404377E-01
H44 -8.453699104144E-03 -4.960300419810E-01 -1.818412229505E-01
C45 -1.577761021157E-01  9.877845349538E-02  1.761368257247E-03
H46 -1.695960454866E-01  1.841458732067E-01 -1.354658456441E-01
C47 -8.569051099871E-02  9.508442964853E-02  8.395213110830E-02
C48 -2.146194291643E-01 -2.558122242791E-03  9.670232373819E-02
H49 -4.285879093078E-02  1.742251210981E-01  6.996409333508E-03
C50 -6.840770968878E-02 -9.262339095076E-03  2.632767287420E-01
C51 -1.962271957649E-01 -1.063390935121E-01  2.782281032188E-01
C52 -2.916787845616E-01  2.498767022851E-03  1.018111711933E-02
H53 -1.179680509491E-02 -1.334298557807E-02  3.244147988217E-01
C54 -1.242658108931E-01 -1.091158026950E-01  3.614310293447E-01
H55 -2.381754025433E-01 -1.889113922190E-01  3.541699512919E-01
C56 -3.512927026463E-01 -4.183590237106E-02  1.354397673409E-01
C57 -3.063370189568E-01  6.030695625870E-02 -2.051993571254E-01
H58 -1.120854550795E-01 -1.914579747943E-01 -4.987104974631E-01
H59 -3.429117026815E-01 -8.578628652081E-02  2.994328607404E-01
C60 -4.259108508347E-01 -2.311935056774E-02  6.159252918931E-02
H61 -2.602467046506E-01  8.797900126986E-02 -3.103034640210E-01
C62 -3.770903052035E-01  8.130325674388E-02 -2.814248034852E-01
C63 -4.861318412243E-01 -6.261654175218E-02  1.929775112460E-01
C64 -4.398316524581E-01  4.410568458365E-02 -1.510542128459E-01
H65 -3.864792623804E-01  1.290300935860E-01 -4.434619978344E-01
H66 -4.759536834848E-01 -1.145674517647E-01  3.532234915929E-01
C67  4.408946762345E-01 -3.676720039703E-02  1.222380268963E-01
C68  4.870192876228E-01  7.025707197552E-02 -2.215227242561E-01
C69  3.788729682169E-01 -7.586067158664E-02  2.541007533191E-01
C70  4.266506323207E-01  3.032385470131E-02 -9.031337078959E-02
H71  4.768491118128E-01  1.219259663866E-01 -3.815835223013E-01
H72  3.889449354936E-01 -1.227280861616E-01  4.161050377664E-01
C73  3.080071779624E-01 -5.759247691975E-02  1.788021814146E-01
C74  3.515941802765E-01  4.672776571137E-02 -1.627506953567E-01
H75  2.624920385890E-01 -8.679260271409E-02  2.851734557289E-01
C76  2.925657700204E-01 -5.502560103374E-04 -3.621936033658E-02
H77  3.424874164729E-01  9.114839111385E-02 -3.261146139038E-01
C78  2.146905359461E-01 -1.361033785366E-04 -1.167357403963E-01
C79  1.935155796774E-01  9.648670465547E-02 -3.009473810720E-01
C80  1.593618857435E-01 -9.898481126170E-02 -1.083562994562E-02
H81  2.342866340571E-01  1.753182546880E-01 -3.867006980008E-01
C82  1.203333063216E-01  9.690598565832E-02 -3.746299092071E-01
H83  1.730518840263E-01 -1.806091101714E-01  1.280607445472E-01
C84  8.610980282208E-02 -9.785669244886E-02 -8.361893384189E-02
H85  1.061282230075E-01  1.742494205974E-01  4.832137515173E-01
C86  6.595328974077E-02  1.258299740887E-03 -2.646662676203E-01
H87  4.468312591887E-02 -1.749640475502E-01  1.971959561450E-03
H88  8.453699104140E-03  3.969958019042E-03 -3.181587770503E-01


#===END
