###############################################################################
#
#                    CRYSTAL17 CIF FILE
#
###############################################################################

data_OPT_STEP_0

_symmetry_space_group_name_H-M 'P 1'
_cell_length_a     17.97300000
_cell_length_b      7.35200000
_cell_length_c      6.24500000
_cell_angle_alpha   90.000000
_cell_angle_beta   90.646004
_cell_angle_gamma   90.000000

loop_
_atom_site_label
_atom_site_fract_x
_atom_site_fract_y
_atom_site_fract_z
C1  1.595626280471E-01 -4.012900699204E-01 -4.989940553259E-01
H2  1.730267029081E-01 -3.200914373985E-01 -3.595288413051E-01
C3  8.701698519326E-02 -3.978169308474E-01  4.222683771508E-01
C4  2.147147091218E-01  4.960017923471E-01  3.998613049197E-01
H5  4.558958073647E-02 -3.183021552541E-01 -4.952879325938E-01
C6  6.757101624142E-02 -4.956092929513E-01  2.395563749478E-01
C7  1.941779212501E-01  3.989205208346E-01  2.152434423430E-01
C8  2.921744177673E-01  4.946460842957E-01  4.836236211193E-01
H9  1.061235176489E-02 -4.942138014600E-01  1.810060013386E-01
C10  1.217932220471E-01  4.038075562841E-01  1.350523610165E-01
H11  2.347237479404E-01  3.156817252129E-01  1.342654210318E-01
C12  3.511793413423E-01  4.496137207255E-01  3.561963348834E-01
C13  3.076606234817E-01 -4.503216294471E-01 -3.004515312578E-01
H14  1.080383410579E-01  3.264430926712E-01 -7.626401055499E-03
H15  3.420408204503E-01  4.065820366332E-01  1.922058856790E-01
C16  4.261893350355E-01  4.690252554294E-01  4.272098828961E-01
H17  2.620406280618E-01 -4.237059320847E-01 -1.933775719771E-01
C18  3.786317262530E-01 -4.294720681948E-01 -2.265333974049E-01
C19  4.861573594152E-01  4.333480285110E-01  2.930543110815E-01
C20  4.406981494910E-01 -4.637932016140E-01 -3.604304906730E-01
H21  3.887451631355E-01 -3.827859706477E-01 -6.442579599717E-02
H22  4.756561497881E-01  3.814623554746E-01  1.331016395506E-01
C23 -4.406981494910E-01  4.637932016140E-01  3.604304906730E-01
C24 -4.861573594152E-01 -4.333480285110E-01 -2.930543110815E-01
C25 -3.786317262530E-01  4.294720681948E-01  2.265333974049E-01
C26 -4.261893350355E-01 -4.690252554294E-01 -4.272098828961E-01
H27 -4.756561497881E-01 -3.814623554746E-01 -1.331016395506E-01
H28 -3.887451631355E-01  3.827859706477E-01  6.442579599717E-02
C29 -3.076606234817E-01  4.503216294471E-01  3.004515312578E-01
C30 -3.511793413423E-01 -4.496137207255E-01 -3.561963348834E-01
H31 -2.620406280618E-01  4.237059320847E-01  1.933775719771E-01
C32 -2.921744177673E-01 -4.946460842957E-01 -4.836236211193E-01
H33 -3.420408204503E-01 -4.065820366332E-01 -1.922058856790E-01
C34 -2.147147091218E-01 -4.960017923471E-01 -3.998613049197E-01
C35 -1.941779212501E-01 -3.989205208346E-01 -2.152434423430E-01
C36 -1.595626280471E-01  4.012900699204E-01  4.989940553259E-01
H37 -2.347237479404E-01 -3.156817252129E-01 -1.342654210318E-01
C38 -1.217932220471E-01 -4.038075562841E-01 -1.350523610165E-01
H39 -1.730267029081E-01  3.200914373985E-01  3.595288413051E-01
C40 -8.701698519326E-02  3.978169308474E-01 -4.222683771508E-01
H41 -1.080383410579E-01 -3.264430926712E-01  7.626401055499E-03
C42 -6.757101624142E-02  4.956092929513E-01 -2.395563749478E-01
H43 -4.558958073647E-02  3.183021552541E-01  4.952879325938E-01
H44 -1.061235176489E-02  4.942138014600E-01 -1.810060013386E-01
C45 -1.575753598120E-01  9.905333467750E-02  1.360294287620E-02
H46 -1.696212266048E-01  1.848464207767E-01 -1.230554314971E-01
C47 -8.478332862755E-02  9.075805294478E-02  8.983944210016E-02
C48 -2.145952559887E-01  1.576188788629E-03  1.132993690535E-01
H49 -4.195233611320E-02  1.674913239023E-01  9.736517177499E-03
C50 -6.678998318809E-02 -1.491134588466E-02  2.674993713092E-01
C51 -1.955648541922E-01 -1.017463190022E-01  2.944189266330E-01
C52 -2.920701368147E-01  8.402938737486E-03  3.002409857444E-02
H53 -9.638152434123E-03 -2.309914213711E-02  3.235795772098E-01
C54 -1.228058951676E-01 -1.098293446375E-01  3.711132995676E-01
H55 -2.377382886600E-01 -1.799113721198E-01  3.751360703237E-01
C56 -3.517075415806E-01 -3.817738880794E-02  1.543867975802E-01
C57 -3.066835734375E-01  6.822106262554E-02 -1.844530697986E-01
H58 -1.101753370291E-01 -1.921504880630E-01 -4.895506500367E-01
H59 -3.433582987042E-01 -8.351671426782E-02  3.177533603224E-01
C60 -4.263721481199E-01 -2.246846069845E-02  7.911578287423E-02
H61 -2.606981151778E-01  9.847753606869E-02 -2.888544917278E-01
C62 -3.773315471675E-01  8.663599652530E-02 -2.620589542100E-01
C63 -4.869937694319E-01 -6.622164223871E-02  2.075545465828E-01
C64 -4.400281792017E-01  4.466608659467E-02 -1.337227304160E-01
H65 -3.866790347384E-01  1.345441503953E-01 -4.239928315988E-01
H66 -4.771466455094E-01 -1.179557736258E-01  3.679086534440E-01
C67  4.400281792017E-01 -4.466608659467E-02  1.337227304160E-01
C68  4.869937694319E-01  6.622164223871E-02 -2.075545465828E-01
C69  3.773315471675E-01 -8.663599652530E-02  2.620589542100E-01
C70  4.263721481199E-01  2.246846069845E-02 -7.911578287423E-02
H71  4.771466455094E-01  1.179557736258E-01 -3.679086534440E-01
H72  3.866790347384E-01 -1.345441503953E-01  4.239928315988E-01
C73  3.066835734375E-01 -6.822106262554E-02  1.844530697986E-01
C74  3.517075415806E-01  3.817738880794E-02 -1.543867975802E-01
H75  2.606981151778E-01 -9.847753606869E-02  2.888544917278E-01
C76  2.920701368147E-01 -8.402938737486E-03 -3.002409857444E-02
H77  3.433582987042E-01  8.351671426782E-02 -3.177533603224E-01
C78  2.145952559887E-01 -1.576188788629E-03 -1.132993690535E-01
C79  1.955648541922E-01  1.017463190022E-01 -2.944189266330E-01
C80  1.575753598120E-01 -9.905333467750E-02 -1.360294287620E-02
H81  2.377382886600E-01  1.799113721198E-01 -3.751360703237E-01
C82  1.228058951676E-01  1.098293446375E-01 -3.711132995676E-01
H83  1.696212266048E-01 -1.848464207767E-01  1.230554314971E-01
C84  8.478332862755E-02 -9.075805294478E-02 -8.983944210016E-02
H85  1.101753370291E-01  1.921504880630E-01  4.895506500367E-01
C86  6.678998318809E-02  1.491134588466E-02 -2.674993713092E-01
H87  4.195233611320E-02 -1.674913239023E-01 -9.736517177499E-03
H88  9.638152434123E-03  2.309914213711E-02 -3.235795772098E-01


#===END
