###############################################################################
#
#                    CRYSTAL17 CIF FILE
#
###############################################################################

data_OPT_STEP_0

_symmetry_space_group_name_H-M 'P 1'
_cell_length_a     17.97300000
_cell_length_b      7.35200000
_cell_length_c      6.24500000
_cell_angle_alpha   90.000000
_cell_angle_beta   90.646004
_cell_angle_gamma   90.000000

loop_
_atom_site_label
_atom_site_fract_x
_atom_site_fract_y
_atom_site_fract_z
C1  1.592141308854E-01 -3.972021978203E-01  4.916913576751E-01
H2  1.714910689310E-01 -3.130572993456E-01 -3.703518345899E-01
C3  8.689046233943E-02 -3.987962355422E-01  4.109401972748E-01
C4  2.154274333634E-01 -4.993899940234E-01  3.952320271323E-01
H5  4.443204429037E-02 -3.198096123025E-01  4.898826807745E-01
C6  6.887728493705E-02  4.985130871381E-01  2.310113404665E-01
C7  1.963043112481E-01  3.989360105529E-01  2.129279044122E-01
C8  2.925278561988E-01 -4.972466649691E-01  4.806820832572E-01
H9  1.204288380085E-02  4.954659171994E-01  1.716401345128E-01
C10  1.242187879254E-01  3.985248808629E-01  1.307635095912E-01
H11  2.377342282816E-01  3.159752311761E-01  1.354348504661E-01
C12  3.515757908874E-01  4.546950500773E-01  3.550382104048E-01
C13  3.076686273853E-01 -4.379658809214E-01 -3.050154409346E-01
H14  1.114869725864E-01  3.176418921291E-01 -9.827753481451E-03
H15  3.425434892122E-01  4.095936162043E-01  1.918512542693E-01
C16  4.264018128808E-01  4.724427567242E-01  4.266381517541E-01
H17  2.618996217272E-01 -4.079614242681E-01 -1.995436497959E-01
C18  3.786434345287E-01 -4.187871181217E-01 -2.302011203637E-01
C19  4.860785465201E-01  4.316438233176E-01  2.936348471276E-01
C20  4.407114479814E-01 -4.584348525139E-01 -3.618012330032E-01
H21  3.887029626096E-01 -3.706038519936E-01 -6.867432213835E-02
H22  4.751742993400E-01  3.787454673686E-01  1.343486811138E-01
C23 -4.407114479814E-01  4.584348525139E-01  3.618012330032E-01
C24 -4.860785465201E-01 -4.316438233176E-01 -2.936348471276E-01
C25 -3.786434345287E-01  4.187871181217E-01  2.302011203637E-01
C26 -4.264018128808E-01 -4.724427567242E-01 -4.266381517541E-01
H27 -4.751742993400E-01 -3.787454673686E-01 -1.343486811138E-01
H28 -3.887029626096E-01  3.706038519936E-01  6.867432213835E-02
C29 -3.076686273853E-01  4.379658809214E-01  3.050154409346E-01
C30 -3.515757908874E-01 -4.546950500773E-01 -3.550382104048E-01
H31 -2.618996217272E-01  4.079614242681E-01  1.995436497959E-01
C32 -2.925278561988E-01  4.972466649691E-01 -4.806820832572E-01
H33 -3.425434892122E-01 -4.095936162043E-01 -1.918512542693E-01
C34 -2.154274333635E-01  4.993899940234E-01 -3.952320271323E-01
C35 -1.963043112481E-01 -3.989360105529E-01 -2.129279044122E-01
C36 -1.592141308854E-01  3.972021978203E-01 -4.916913576751E-01
H37 -2.377342282816E-01 -3.159752311761E-01 -1.354348504661E-01
C38 -1.242187879254E-01 -3.985248808629E-01 -1.307635095912E-01
H39 -1.714910689310E-01  3.130572993456E-01  3.703518345899E-01
C40 -8.689046233943E-02  3.987962355422E-01 -4.109401972748E-01
H41 -1.114869725864E-01 -3.176418921291E-01  9.827753481451E-03
C42 -6.887728493705E-02 -4.985130871381E-01 -2.310113404665E-01
H43 -4.443204429037E-02  3.198096123025E-01 -4.898826807745E-01
H44 -1.204288380085E-02 -4.954659171994E-01 -1.716401345128E-01
C45 -1.592141308854E-01  1.027978021797E-01  8.308642324144E-03
H46 -1.714910689310E-01  1.869427006544E-01 -1.296481654109E-01
C47 -8.689046233944E-02  1.012037644578E-01  8.905980272439E-02
C48 -2.154274333635E-01  6.100059766050E-04  1.047679728669E-01
H49 -4.443204429038E-02  1.801903876975E-01  1.011731922472E-02
C50 -6.887728493705E-02 -1.486912861942E-03  2.689886595327E-01
C51 -1.963043112481E-01 -1.010639894471E-01  2.870720955870E-01
C52 -2.925278561988E-01  2.753335030876E-03  1.931791674201E-02
H53 -1.204288380085E-02 -4.534082800598E-03  3.283598654864E-01
C54 -1.242187879254E-01 -1.014751191371E-01  3.692364904080E-01
H55 -2.377342282816E-01 -1.840247688239E-01  3.645651495331E-01
C56 -3.515757908875E-01 -4.530494992274E-02  1.449617895944E-01
C57 -3.076686273853E-01  6.203411907862E-02 -1.949845590662E-01
H58 -1.114869725864E-01 -1.823581078709E-01 -4.901722465193E-01
H59 -3.425434892122E-01 -9.040638379570E-02  3.081487457299E-01
C60 -4.264018128808E-01 -2.755724327584E-02  7.336184824509E-02
H61 -2.618996217272E-01  9.203857573191E-02 -3.004563502049E-01
C62 -3.786434345287E-01  8.121288187826E-02 -2.697988796371E-01
C63 -4.860785465201E-01 -6.835617668240E-02  2.063651528716E-01
C64 -4.407114479814E-01  4.156514748613E-02 -1.381987669976E-01
H65 -3.887029626096E-01  1.293961480064E-01 -4.313256778625E-01
H66 -4.751742993400E-01 -1.212545326314E-01  3.656513188854E-01
C67  4.407114479813E-01 -4.156514748613E-02  1.381987669960E-01
C68  4.860785465201E-01  6.835617668240E-02 -2.063651528732E-01
C69  3.786434345287E-01 -8.121288187826E-02  2.697988796355E-01
C70  4.264018128807E-01  2.755724327584E-02 -7.336184824669E-02
H71  4.751742993400E-01  1.212545326314E-01 -3.656513188870E-01
H72  3.887029626096E-01 -1.293961480064E-01  4.313256778608E-01
C73  3.076686273853E-01 -6.203411907862E-02  1.949845590646E-01
C74  3.515757908874E-01  4.530494992274E-02 -1.449617895960E-01
H75  2.618996217272E-01 -9.203857573191E-02  3.004563502033E-01
C76  2.925278561988E-01 -2.753335030876E-03 -1.931791674361E-02
H77  3.425434892122E-01  9.040638379570E-02 -3.081487457315E-01
C78  2.154274333634E-01 -6.100059766052E-04 -1.047679728685E-01
C79  1.963043112481E-01  1.010639894471E-01 -2.870720955886E-01
C80  1.592141308854E-01 -1.027978021797E-01 -8.308642325745E-03
H81  2.377342282816E-01  1.840247688239E-01 -3.645651495347E-01
C82  1.242187879254E-01  1.014751191371E-01 -3.692364904096E-01
H83  1.714910689310E-01 -1.869427006544E-01  1.296481654093E-01
C84  8.689046233943E-02 -1.012037644578E-01 -8.905980272599E-02
H85  1.114869725864E-01  1.823581078709E-01  4.901722465177E-01
C86  6.887728493705E-02  1.486912861942E-03 -2.689886595343E-01
H87  4.443204429037E-02 -1.801903876975E-01 -1.011731922632E-02
H88  1.204288380085E-02  4.534082800598E-03 -3.283598654880E-01


#===END
