###############################################################################
#
#                    CRYSTAL17 CIF FILE
#
###############################################################################

data_OPT_STEP_0

_symmetry_space_group_name_H-M 'P 1'
_cell_length_a     17.97300000
_cell_length_b      7.35200000
_cell_length_c      6.24500000
_cell_angle_alpha   90.000000
_cell_angle_beta   90.646004
_cell_angle_gamma   90.000000

loop_
_atom_site_label
_atom_site_fract_x
_atom_site_fract_y
_atom_site_fract_z
C1  1.585400151580E-01 -4.038609925709E-01  4.958532676979E-01
H2  1.712761636994E-01 -3.212366491495E-01 -3.654293597488E-01
C3  8.605562965336E-02 -4.031797007266E-01  4.169501165099E-01
C4  2.144786549995E-01  4.956604391153E-01  3.951855317903E-01
H5  4.424680461313E-02 -3.238173347825E-01  4.979489460995E-01
C6  6.720849347381E-02  4.973111294450E-01  2.351684028349E-01
C7  1.944203735715E-01  3.963601256556E-01  2.118087875166E-01
C8  2.921289804428E-01  4.998075829908E-01  4.775991312508E-01
H9  1.033182038589E-02  4.968191543551E-01  1.761139127061E-01
C10  1.220009480965E-01  3.977730740242E-01  1.319493969574E-01
H11  2.355154730315E-01  3.152276026449E-01  1.304585160534E-01
C12  3.513784742592E-01  4.500853390885E-01  3.531166694753E-01
C13  3.074213332753E-01 -4.351001979098E-01 -3.101633906379E-01
H14  1.087119606703E-01  3.193487754233E-01 -1.011434600580E-02
H15  3.425734297275E-01  4.012010140431E-01  1.911397598920E-01
C16  4.263202958951E-01  4.711050681587E-01  4.246507363353E-01
H17  2.618166622633E-01 -4.024510218504E-01 -2.054101192497E-01
C18  3.782095428429E-01 -4.149391304150E-01 -2.348489859338E-01
C19  4.866507847102E-01  4.327725285087E-01  2.927196111713E-01
C20  4.404597397570E-01 -4.582873907829E-01 -3.642423798162E-01
H21  3.880030467691E-01 -3.644356441687E-01 -7.417968325614E-02
H22  4.764668627805E-01  3.811677671211E-01  1.324589334265E-01
C23 -4.402665889356E-01  4.608397242364E-01  3.624653804415E-01
C24 -4.865003441369E-01 -4.343538577636E-01 -2.927801533266E-01
C25 -3.777537305776E-01  4.278969412545E-01  2.296254572619E-01
C26 -4.262411872602E-01 -4.754517265722E-01 -4.234433636858E-01
H27 -4.763359325171E-01 -3.823388147277E-01 -1.327340526792E-01
H28 -3.874211511048E-01  3.838061760838E-01  6.625328114301E-02
C29 -3.069228636439E-01  4.470003689117E-01  3.058350708221E-01
C30 -3.515084086637E-01 -4.613509928289E-01 -3.486928678272E-01
H31 -2.609220809763E-01  4.227773741657E-01  1.991129610004E-01
C32 -2.921155741391E-01  4.967585599576E-01 -4.760003912933E-01
H33 -3.428256894269E-01 -4.218643083222E-01 -1.833127654638E-01
C34 -2.148313101110E-01  4.980824579796E-01 -3.913764040752E-01
C35 -1.953224018708E-01 -4.008140761768E-01 -2.090157281926E-01
C36 -1.585979727011E-01  3.983757426721E-01 -4.915497340993E-01
H37 -2.369465635689E-01 -3.205427504482E-01 -1.286708346540E-01
C38 -1.225981691181E-01 -3.962051376224E-01 -1.319896644907E-01
H39 -1.713717658134E-01  3.140083674724E-01  3.710440500600E-01
C40 -8.574468416743E-02  4.038791771760E-01 -4.154788185399E-01
H41 -1.095017174167E-01 -3.149438291850E-01  7.961405013850E-03
C42 -6.715250595574E-02 -4.921682317190E-01 -2.368886008029E-01
H43 -4.329511223658E-02  3.269934965692E-01 -4.970266041285E-01
H44 -9.918683813159E-03 -4.858679020477E-01 -1.813125114220E-01
C45 -1.585400151580E-01  9.613900742913E-02  4.146732301334E-03
H46 -1.712761636994E-01  1.787633508505E-01 -1.345706402520E-01
C47 -8.605562965336E-02  9.682029927339E-02  8.304988348931E-02
C48 -2.144786549995E-01 -4.339560884657E-03  1.048144682089E-01
H49 -4.424680461314E-02  1.761826652175E-01  2.051053899732E-03
C50 -6.720849347381E-02 -2.688870554951E-03  2.648315971643E-01
C51 -1.944203735715E-01 -1.036398743444E-01  2.881912124826E-01
C52 -2.921289804429E-01 -1.924170092492E-04  2.240086874836E-02
H53 -1.033182038590E-02 -3.180845644859E-03  3.238860872931E-01
C54 -1.220009480965E-01 -1.022269259758E-01  3.680506030418E-01
H55 -2.355154730315E-01 -1.847723973551E-01  3.695414839458E-01
C56 -3.513784742592E-01 -4.991466091145E-02  1.468833305239E-01
C57 -3.074213332753E-01  6.489980209018E-02 -1.898366093629E-01
H58 -1.087119606703E-01 -1.806512245767E-01 -4.898856539950E-01
H59 -3.425734297275E-01 -9.879898595688E-02  3.088602401072E-01
C60 -4.263202958951E-01 -2.889493184127E-02  7.534926366387E-02
H61 -2.618166622633E-01  9.754897814962E-02 -2.945898807511E-01
C62 -3.782095428429E-01  8.506086958501E-02 -2.651510140670E-01
C63 -4.866507847102E-01 -6.722747149129E-02  2.072803888279E-01
C64 -4.404597397570E-01  4.171260921708E-02 -1.357576201846E-01
H65 -3.880030467691E-01  1.355643558313E-01 -4.258203167447E-01
H66 -4.764668627805E-01 -1.188322328789E-01  3.675410665727E-01
C67  4.402665889356E-01 -3.916027576360E-02  1.375346195577E-01
C68  4.865003441369E-01  6.564614223640E-02 -2.072198466742E-01
C69  3.777537305776E-01 -7.210305874551E-02  2.703745427373E-01
C70  4.262411872602E-01  2.454827342777E-02 -7.655663631502E-02
H71  4.763359325171E-01  1.176611852723E-01 -3.672659473216E-01
H72  3.874211511048E-01 -1.161938239162E-01  4.337467188562E-01
C73  3.069228636439E-01 -5.299963108828E-02  1.941649291771E-01
C74  3.515084086637E-01  3.864900717111E-02 -1.513071321736E-01
H75  2.609220809763E-01 -7.722262583433E-02  3.008870389988E-01
C76  2.921155741391E-01 -3.241440042438E-03 -2.399960870755E-02
H77  3.428256894269E-01  7.813569167777E-02 -3.166872345370E-01
C78  2.148313101110E-01 -1.917542020403E-03 -1.086235959256E-01
C79  1.953224018708E-01  9.918592382318E-02 -2.909842718082E-01
C80  1.585979727011E-01 -1.016242573279E-01 -8.450265901537E-03
H81  2.369465635689E-01  1.794572495518E-01 -3.713291653468E-01
C82  1.225981691181E-01  1.037948623776E-01 -3.680103355101E-01
H83  1.713717658134E-01 -1.859916325276E-01  1.289559499392E-01
C84  8.574468416742E-02 -9.612082282399E-02 -8.452118146089E-02
H85  1.095017174167E-01  1.850561708150E-01  4.920385949853E-01
C86  6.715250595573E-02  7.831768281012E-03 -2.631113991979E-01
H87  4.329511223657E-02 -1.730065034308E-01 -2.973395872326E-03
H88  9.918683813156E-03  1.413209795226E-02 -3.186874885788E-01


#===END
