###############################################################################
#
#                    CRYSTAL17 CIF FILE
#
###############################################################################

data_OPT_STEP_0

_symmetry_space_group_name_H-M 'P 1'
_cell_length_a     17.97300000
_cell_length_b      7.35200000
_cell_length_c      6.24500000
_cell_angle_alpha   90.000000
_cell_angle_beta   90.646004
_cell_angle_gamma   90.000000

loop_
_atom_site_label
_atom_site_fract_x
_atom_site_fract_y
_atom_site_fract_z
C1  1.576155158621E-01 -4.045134512942E-01  4.952031903905E-01
H2  1.702180358267E-01 -3.224159097395E-01 -3.654463233806E-01
C3  8.537739067200E-02 -4.023937826589E-01  4.140665278004E-01
C4  2.137114334215E-01  4.948466881878E-01  3.954102526113E-01
H5  4.343552213824E-02 -3.231937274536E-01  4.947725159709E-01
C6  6.694292301840E-02  4.992490069431E-01  2.310351459960E-01
C7  1.938530084869E-01  3.948050569023E-01  2.123739291065E-01
C8  2.915383421639E-01 -4.995900471960E-01  4.772377921076E-01
H9  1.022921464928E-02  4.998275465943E-01  1.706896376181E-01
C10  1.217233809277E-01  3.980027946292E-01  1.299295086171E-01
H11  2.350055933243E-01  3.121373466246E-01  1.332875387159E-01
C12  3.510029337360E-01  4.587742628361E-01  3.495079499159E-01
C13  3.069160165873E-01 -4.410689948153E-01 -3.080845481875E-01
H14  1.086775119530E-01  3.194064093172E-01 -1.216530155596E-02
H15  3.421281469614E-01  4.156100715762E-01  1.854616233444E-01
C16  4.260351708790E-01  4.766193009778E-01  4.222736124850E-01
H17  2.612592363221E-01 -4.139146925564E-01 -2.013463710026E-01
C18  3.778193201662E-01 -4.187360722909E-01 -2.338087024211E-01
C19  4.865459327537E-01  4.350938484645E-01  2.922770460864E-01
C20  4.402648966931E-01 -4.573998168331E-01 -3.646578522165E-01
H21  3.875675911567E-01 -3.707448519652E-01 -7.207588987822E-02
H22  4.765151963336E-01  3.840517394635E-01  1.317138275304E-01
C23 -4.402648966931E-01  4.573998168331E-01  3.646578522165E-01
C24 -4.865459327537E-01 -4.350938484645E-01 -2.922770460864E-01
C25 -3.778193201662E-01  4.187360722909E-01  2.338087024211E-01
C26 -4.260351708790E-01 -4.766193009778E-01 -4.222736124850E-01
H27 -4.765151963336E-01 -3.840517394635E-01 -1.317138275304E-01
H28 -3.875675911567E-01  3.707448519652E-01  7.207588987822E-02
C29 -3.069160165873E-01  4.410689948153E-01  3.080845481875E-01
C30 -3.510029337360E-01 -4.587742628361E-01 -3.495079499159E-01
H31 -2.612592363221E-01  4.139146925564E-01  2.013463710026E-01
C32 -2.915383421639E-01  4.995900471960E-01 -4.772377921076E-01
H33 -3.421281469614E-01 -4.156100715762E-01 -1.854616233444E-01
C34 -2.137114334215E-01 -4.948466881878E-01 -3.954102526113E-01
C35 -1.938530084869E-01 -3.948050569023E-01 -2.123739291065E-01
C36 -1.576155158621E-01  4.045134512942E-01 -4.952031903905E-01
H37 -2.350055933243E-01 -3.121373466246E-01 -1.332875387159E-01
C38 -1.217233809277E-01 -3.980027946292E-01 -1.299295086171E-01
H39 -1.702180358267E-01  3.224159097395E-01  3.654463233806E-01
C40 -8.537739067200E-02  4.023937826589E-01 -4.140665278004E-01
H41 -1.086775119530E-01 -3.194064093172E-01  1.216530155596E-02
C42 -6.694292301840E-02 -4.992490069431E-01 -2.310351459960E-01
H43 -4.343552213824E-02  3.231937274536E-01 -4.947725159709E-01
H44 -1.022921464928E-02 -4.998275465943E-01 -1.706896376181E-01
C45 -1.595224719971E-01  1.022767160513E-01  7.800188592558E-03
H46 -1.724298936861E-01  1.871708931177E-01 -1.289729135726E-01
C47 -8.642292314875E-02  9.533490475626E-02  8.163759274979E-02
C48 -2.155985316889E-01  2.731292947905E-03  1.088483167450E-01
H49 -4.410639471143E-02  1.723828961019E-01 -2.030342578176E-04
C50 -6.741807641112E-02 -9.769645779108E-03  2.589781423574E-01
C51 -1.958897669554E-01 -9.763085506991E-02  2.915494133966E-01
C52 -2.927062124181E-01  2.639070229189E-03  2.363826956274E-02
H53 -1.002128954979E-02 -1.714049019138E-02  3.132632134892E-01
C54 -1.228757362870E-01 -1.040245829826E-01  3.659904471682E-01
H55 -2.374564432761E-01 -1.763669935316E-01  3.741581880077E-01
C56 -3.518839491869E-01 -4.733793091853E-02  1.476984126127E-01
C57 -3.074281803320E-01  5.896842799374E-02 -1.920860867282E-01
H58 -1.095361661340E-01 -1.851138047089E-01 -4.940895505371E-01
H59 -3.432709721930E-01 -9.254474921083E-02  3.110090979878E-01
C60 -4.265263122763E-01 -3.006250624687E-02  7.417951246306E-02
H61 -2.614795069175E-01  8.868629654040E-02 -2.968232907533E-01
C62 -3.781439532542E-01  7.590000062146E-02 -2.693342592261E-01
C63 -4.866051960935E-01 -6.796746219219E-02  2.067772815878E-01
C64 -4.404614319995E-01  3.827270181379E-02 -1.379500919596E-01
H65 -3.878566067173E-01  1.225030317127E-01 -4.316429254799E-01
H66 -4.762875989640E-01 -1.205451576148E-01  3.665208414239E-01
C67  4.404614319995E-01 -3.827270181379E-02  1.379500919596E-01
C68  4.866051960935E-01  6.796746219219E-02 -2.067772815878E-01
C69  3.781439532542E-01 -7.590000062146E-02  2.693342592261E-01
C70  4.265263122763E-01  3.006250624687E-02 -7.417951246306E-02
H71  4.762875989640E-01  1.205451576148E-01 -3.665208414239E-01
H72  3.878566067173E-01 -1.225030317127E-01  4.316429254799E-01
C73  3.074281803320E-01 -5.896842799374E-02  1.920860867282E-01
C74  3.518839491869E-01  4.733793091853E-02 -1.476984126127E-01
H75  2.614795069175E-01 -8.868629654040E-02  2.968232907533E-01
C76  2.927062124181E-01 -2.639070229189E-03 -2.363826956274E-02
H77  3.432709721930E-01  9.254474921083E-02 -3.110090979878E-01
C78  2.155985316889E-01 -2.731292947905E-03 -1.088483167450E-01
C79  1.958897669554E-01  9.763085506991E-02 -2.915494133966E-01
C80  1.595224719971E-01 -1.022767160513E-01 -7.800188592558E-03
H81  2.374564432761E-01  1.763669935316E-01 -3.741581880077E-01
C82  1.228757362870E-01  1.040245829826E-01 -3.659904471682E-01
H83  1.724298936861E-01 -1.871708931177E-01  1.289729135726E-01
C84  8.642292314875E-02 -9.533490475626E-02 -8.163759274979E-02
H85  1.095361661340E-01  1.851138047089E-01  4.940895505371E-01
C86  6.741807641112E-02  9.769645779108E-03 -2.589781423574E-01
H87  4.410639471143E-02 -1.723828961019E-01  2.030342578176E-04
H88  1.002128954979E-02  1.714049019138E-02 -3.132632134892E-01


#===END
