###############################################################################
#
#                    CRYSTAL17 CIF FILE
#
###############################################################################

data_OPT_STEP_0

_symmetry_space_group_name_H-M 'P 1'
_cell_length_a     17.97300000
_cell_length_b      7.35200000
_cell_length_c      6.24500000
_cell_angle_alpha   90.000000
_cell_angle_beta   90.646004
_cell_angle_gamma   90.000000

loop_
_atom_site_label
_atom_site_fract_x
_atom_site_fract_y
_atom_site_fract_z
C1  1.583858480665E-01 -4.068386054332E-01 -4.927610036386E-01
H2  1.707418711586E-01 -3.277408520736E-01 -3.504298116048E-01
C3  8.591061453822E-02 -4.055570892896E-01  4.277162097630E-01
C4  2.146744729383E-01  4.968947617251E-01  4.029535324495E-01
H5  4.372315480299E-02 -3.292181379474E-01 -4.888242719995E-01
C6  6.754829292717E-02  4.997076300012E-01  2.415822714754E-01
C7  1.951142452289E-01  4.029833927369E-01  2.151212973220E-01
C8  2.922070567187E-01  4.986148231098E-01  4.856372604432E-01
H9  1.073497206403E-02  4.997062887402E-01  1.816913090914E-01
C10  1.228054353990E-01  4.047930880193E-01  1.346282532685E-01
H11  2.365148735524E-01  3.249656570411E-01  1.307612285850E-01
C12  3.511103858867E-01  4.540159694418E-01  3.574549886206E-01
C13  3.079558058238E-01 -4.450495485063E-01 -2.993029230534E-01
H14  1.100153293967E-01  3.301908490842E-01 -1.099053943362E-02
H15  3.417573681353E-01  4.107182258787E-01  1.937492223757E-01
C16  4.261852580162E-01  4.722385073736E-01  4.274698800055E-01
H17  2.625446034502E-01 -4.170296634950E-01 -1.917910625624E-01
C18  3.791045879861E-01 -4.251011604829E-01 -2.261993571581E-01
C19  4.857417825543E-01  4.345875769153E-01  2.926167628872E-01
C20  4.409172624772E-01 -4.616587179222E-01 -3.599047076082E-01
H21  3.894857967352E-01 -3.780062382685E-01 -6.432595242347E-02
H22  4.747035024610E-01  3.834962828045E-01  1.326370939683E-01
C23 -4.409172624772E-01  4.616587179222E-01  3.599047076082E-01
C24 -4.857417825543E-01 -4.345875769153E-01 -2.926167628872E-01
C25 -3.791045879861E-01  4.251011604829E-01  2.261993571581E-01
C26 -4.261852580162E-01 -4.722385073736E-01 -4.274698800055E-01
H27 -4.747035024610E-01 -3.834962828045E-01 -1.326370939683E-01
H28 -3.894857967352E-01  3.780062382685E-01  6.432595242347E-02
C29 -3.079558058238E-01  4.450495485063E-01  2.993029230534E-01
C30 -3.511103858867E-01 -4.540159694418E-01 -3.574549886206E-01
H31 -2.625446034502E-01  4.170296634950E-01  1.917910625624E-01
C32 -2.922070567187E-01 -4.986148231098E-01 -4.856372604432E-01
H33 -3.417573681353E-01 -4.107182258787E-01 -1.937492223757E-01
C34 -2.146744729383E-01 -4.968947617251E-01 -4.029535324495E-01
C35 -1.951142452289E-01 -4.029833927369E-01 -2.151212973220E-01
C36 -1.583858480665E-01  4.068386054332E-01  4.927610036386E-01
H37 -2.365148735524E-01 -3.249656570411E-01 -1.307612285850E-01
C38 -1.228054353990E-01 -4.047930880193E-01 -1.346282532685E-01
H39 -1.707418711586E-01  3.277408520736E-01  3.504298116048E-01
C40 -8.591061453822E-02  4.055570892896E-01 -4.277162097630E-01
H41 -1.100153293967E-01 -3.301908490842E-01  1.099053943362E-02
C42 -6.754829292717E-02 -4.997076300012E-01 -2.415822714754E-01
H43 -4.372315480299E-02  3.292181379474E-01  4.888242719995E-01
H44 -1.073497206403E-02 -4.997062887402E-01 -1.816913090914E-01
C45 -1.583858480665E-01  9.316139456678E-02 -7.238996362184E-03
H46 -1.707418711586E-01  1.722591479264E-01 -1.495701883960E-01
C47 -8.591061453822E-02  9.444291071042E-02  7.228379023620E-02
C48 -2.146744729383E-01 -3.105238274891E-03  9.704646754970E-02
H49 -4.372315480299E-02  1.707818620526E-01 -1.117572800134E-02
C50 -6.754829292717E-02 -2.923699987758E-04  2.584177285238E-01
C51 -1.951142452289E-01 -9.701660726306E-02  2.848787026772E-01
C52 -2.922070567187E-01 -1.385176890234E-03  1.436273955601E-02
H53 -1.073497206403E-02 -2.937112597933E-04  3.183086909078E-01
C54 -1.228054353990E-01 -9.520691198069E-02  3.653717467307E-01
H55 -2.365148735524E-01 -1.750343429589E-01  3.692387714142E-01
C56 -3.511103858867E-01 -4.598403055822E-02  1.425450113786E-01
C57 -3.079558058238E-01  5.495045149374E-02 -2.006970769474E-01
H58 -1.100153293967E-01 -1.698091509158E-01 -4.890094605672E-01
H59 -3.417573681353E-01 -8.928177412133E-02  3.062507776235E-01
C60 -4.261852580162E-01 -2.776149262636E-02  7.253011999372E-02
H61 -2.625446034503E-01  8.297033650503E-02 -3.082089374384E-01
C62 -3.791045879861E-01  7.489883951714E-02 -2.738006428427E-01
C63 -4.857417825543E-01 -6.541242308474E-02  2.073832371120E-01
C64 -4.409172624772E-01  3.834128207780E-02 -1.400952923926E-01
H65 -3.894857967352E-01  1.219937617315E-01 -4.356740475773E-01
H66 -4.747035024610E-01 -1.165037171955E-01  3.673629060309E-01
C67  4.409172624772E-01 -3.834128207780E-02  1.400952923910E-01
C68  4.857417825543E-01  6.541242308474E-02 -2.073832371136E-01
C69  3.791045879861E-01 -7.489883951714E-02  2.738006428411E-01
C70  4.261852580162E-01  2.776149262636E-02 -7.253011999533E-02
H71  4.747035024609E-01  1.165037171955E-01 -3.673629060325E-01
H72  3.894857967352E-01 -1.219937617315E-01  4.356740475757E-01
C73  3.079558058238E-01 -5.495045149374E-02  2.006970769458E-01
C74  3.511103858867E-01  4.598403055822E-02 -1.425450113802E-01
H75  2.625446034502E-01 -8.297033650503E-02  3.082089374368E-01
C76  2.922070567187E-01  1.385176890234E-03 -1.436273955761E-02
H77  3.417573681353E-01  8.928177412133E-02 -3.062507776251E-01
C78  2.146744729383E-01  3.105238274891E-03 -9.704646755130E-02
C79  1.951142452289E-01  9.701660726306E-02 -2.848787026788E-01
C80  1.583858480665E-01 -9.316139456678E-02  7.238996360582E-03
H81  2.365148735524E-01  1.750343429589E-01 -3.692387714158E-01
C82  1.228054353990E-01  9.520691198069E-02 -3.653717467323E-01
H83  1.707418711586E-01 -1.722591479264E-01  1.495701883944E-01
C84  8.591061453821E-02 -9.444291071042E-02 -7.228379023781E-02
H85  1.100153293967E-01  1.698091509158E-01  4.890094605656E-01
C86  6.754829292716E-02  2.923699987756E-04 -2.584177285254E-01
H87  4.372315480298E-02 -1.707818620526E-01  1.117572799974E-02
H88  1.073497206403E-02  2.937112597932E-04 -3.183086909094E-01


#===END
