###############################################################################
#
#                    CRYSTAL17 CIF FILE
#
###############################################################################

data_OPT_STEP_0

_symmetry_space_group_name_H-M 'P 1'
_cell_length_a     17.97300000
_cell_length_b      7.35200000
_cell_length_c      6.24500000
_cell_angle_alpha   90.000000
_cell_angle_beta   90.646004
_cell_angle_gamma   90.000000

loop_
_atom_site_label
_atom_site_fract_x
_atom_site_fract_y
_atom_site_fract_z
C1  1.591223931298E-01 -3.953105368560E-01  4.931288071392E-01
H2  1.726232918723E-01 -3.118536417563E-01 -3.693653267015E-01
C3  8.612465610896E-02 -3.965450649091E-01  4.181413759080E-01
C4  2.145462922258E-01 -4.966895022456E-01  3.915750299719E-01
H5  4.455170356896E-02 -3.176784585016E-01 -4.992264587981E-01
C6  6.641209664116E-02 -4.983481980514E-01  2.388284268321E-01
C7  1.938058497440E-01  4.032693094378E-01  2.094645084006E-01
C8  2.921024695418E-01 -4.956951957141E-01  4.744145673334E-01
H9  9.141816146283E-03  4.988613686597E-01  1.833920167695E-01
C10  1.209084278096E-01  4.028961251202E-01  1.333226817538E-01
H11  2.346437238655E-01  3.215454773653E-01  1.276664989154E-01
C12  3.514753946231E-01  4.599214282686E-01  3.479570505950E-01
C13  3.070103336717E-01 -4.414435542387E-01 -3.093478427434E-01
H14  1.070120100717E-01  3.227549946389E-01 -7.071835696616E-03
H15  3.426781878824E-01  4.180443978218E-01  1.834607995755E-01
C16  4.263123105699E-01  4.755266581413E-01  4.222086881490E-01
H17  2.611163519477E-01 -4.140526363268E-01 -2.035177929447E-01
C18  3.777677049128E-01 -4.233990186572E-01 -2.326812054205E-01
C19  4.867734382197E-01  4.367730222208E-01  2.911736162061E-01
C20  4.402083351637E-01 -4.606186148372E-01 -3.636058442511E-01
H21  3.873764118911E-01 -3.777908999603E-01 -6.989986336689E-02
H22  4.768169405905E-01  3.869439004158E-01  1.300220786033E-01
C23 -4.402083351637E-01  4.606186148372E-01  3.636058442511E-01
C24 -4.867734382197E-01 -4.367730222208E-01 -2.911736162061E-01
C25 -3.777677049128E-01  4.233990186572E-01  2.326812054205E-01
C26 -4.263123105699E-01 -4.755266581413E-01 -4.222086881490E-01
H27 -4.768169405905E-01 -3.869439004158E-01 -1.300220786033E-01
H28 -3.873764118911E-01  3.777908999603E-01  6.989986336689E-02
C29 -3.070103336717E-01  4.414435542387E-01  3.093478427434E-01
C30 -3.514753946231E-01 -4.599214282686E-01 -3.479570505950E-01
H31 -2.611163519477E-01  4.140526363268E-01  2.035177929447E-01
C32 -2.921024695418E-01  4.956951957141E-01 -4.744145673334E-01
H33 -3.426781878824E-01 -4.180443978218E-01 -1.834607995755E-01
C34 -2.145462922258E-01  4.966895022456E-01 -3.915750299719E-01
C35 -1.938058497440E-01 -4.032693094378E-01 -2.094645084006E-01
C36 -1.591223931298E-01  3.953105368560E-01 -4.931288071392E-01
H37 -2.346437238655E-01 -3.215454773653E-01 -1.276664989154E-01
C38 -1.209084278096E-01 -4.028961251202E-01 -1.333226817538E-01
H39 -1.726232918723E-01  3.118536417563E-01  3.693653267015E-01
C40 -8.612465610896E-02  3.965450649091E-01 -4.181413759080E-01
H41 -1.070120100717E-01 -3.227549946389E-01  7.071835696616E-03
C42 -6.641209664116E-02  4.983481980514E-01 -2.388284268321E-01
H43 -4.455170356896E-02  3.176784585016E-01  4.992264587981E-01
H44 -9.141816146283E-03 -4.988613686597E-01 -1.833920167695E-01
C45 -1.591223931298E-01  1.046894631440E-01  6.871192859975E-03
H46 -1.726232918723E-01  1.881463582437E-01 -1.306346732993E-01
C47 -8.612465610896E-02  1.034549350909E-01  8.185862409116E-02
C48 -2.145462922258E-01  3.310497754353E-03  1.084249700273E-01
H49 -4.455170356896E-02  1.823215414984E-01 -7.735412027417E-04
C50 -6.641209664116E-02  1.651801948585E-03  2.611715731671E-01
C51 -1.938058497440E-01 -9.673069056216E-02  2.905354915986E-01
C52 -2.921024695418E-01  4.304804285909E-03  2.558543266580E-02
H53 -9.141816146287E-03 -1.138631340316E-03  3.166079832297E-01
C54 -1.209084278096E-01 -9.710387487976E-02  3.666773182454E-01
H55 -2.346437238655E-01 -1.784545226347E-01  3.723335010838E-01
C56 -3.514753946231E-01 -4.007857173137E-02  1.520429494042E-01
C57 -3.070103336717E-01  5.855644576129E-02 -1.906521572574E-01
H58 -1.070120100717E-01 -1.772450053611E-01 -4.929281643042E-01
H59 -3.426781878824E-01 -8.195560217818E-02  3.165392004237E-01
C60 -4.263123105699E-01 -2.447334185868E-02  7.779131185017E-02
H61 -2.611163519477E-01  8.594736367315E-02 -2.964822070561E-01
C62 -3.777677049128E-01  7.660098134276E-02 -2.673187945803E-01
C63 -4.867734382197E-01 -6.322697777924E-02  2.088263837931E-01
C64 -4.402083351637E-01  3.938138516281E-02 -1.363941557497E-01
H65 -3.873764118911E-01  1.222091000397E-01 -4.301001366339E-01
H66 -4.768169405905E-01 -1.130560995842E-01  3.699779213959E-01
C67  4.402083351637E-01 -3.938138516281E-02  1.363941557481E-01
C68  4.867734382197E-01  6.322697777924E-02 -2.088263837947E-01
C69  3.777677049128E-01 -7.660098134276E-02  2.673187945787E-01
C70  4.263123105699E-01  2.447334185868E-02 -7.779131185177E-02
H71  4.768169405905E-01  1.130560995842E-01 -3.699779213975E-01
H72  3.873764118911E-01 -1.222091000397E-01  4.301001366323E-01
C73  3.070103336717E-01 -5.855644576129E-02  1.906521572558E-01
C74  3.514753946231E-01  4.007857173137E-02 -1.520429494058E-01
H75  2.611163519477E-01 -8.594736367315E-02  2.964822070545E-01
C76  2.921024695418E-01 -4.304804285909E-03 -2.558543266740E-02
H77  3.426781878824E-01  8.195560217818E-02 -3.165392004253E-01
C78  2.145462922258E-01 -3.310497754353E-03 -1.084249700289E-01
C79  1.938058497440E-01  9.673069056216E-02 -2.905354916002E-01
C80  1.591223931298E-01 -1.046894631440E-01 -6.871192861577E-03
H81  2.346437238655E-01  1.784545226347E-01 -3.723335010854E-01
C82  1.209084278096E-01  9.710387487976E-02 -3.666773182470E-01
H83  1.726232918723E-01 -1.881463582437E-01  1.306346732977E-01
C84  8.612465610895E-02 -1.034549350909E-01 -8.185862409276E-02
H85  1.070120100717E-01  1.772450053611E-01  4.929281643026E-01
C86  6.641209664116E-02 -1.651801948586E-03 -2.611715731687E-01
H87  4.455170356895E-02 -1.823215414984E-01  7.735412011403E-04
H88  9.141816146280E-03  1.138631340315E-03 -3.166079832313E-01


#===END
