###############################################################################
#
#                    CRYSTAL17 CIF FILE
#
###############################################################################

data_OPT_STEP_0

_symmetry_space_group_name_H-M 'P 1'
_cell_length_a     17.97300000
_cell_length_b      7.35200000
_cell_length_c      6.24500000
_cell_angle_alpha   90.000000
_cell_angle_beta   90.646004
_cell_angle_gamma   90.000000

loop_
_atom_site_label
_atom_site_fract_x
_atom_site_fract_y
_atom_site_fract_z
C1  1.582225774280E-01 -4.040506432194E-01  4.977199482716E-01
H2  1.715843122269E-01 -3.212669694319E-01 -3.641561162782E-01
C3  8.514004502008E-02 -4.059597499758E-01  4.238028190543E-01
C4  2.139645723445E-01  4.974341157633E-01  3.933393138318E-01
H5  4.356424199146E-02 -3.280478680129E-01 -4.924760673736E-01
C6  6.537891874333E-02  4.938678954555E-01  2.431993685235E-01
C7  1.931304860076E-01  3.989288405906E-01  2.100461456190E-01
C8  2.918289523733E-01 -4.992055352255E-01  4.746135408178E-01
H9  8.105049932550E-03  4.914430905492E-01  1.877664932064E-01
C10  1.200163512580E-01  3.973314518350E-01  1.355029461570E-01
H11  2.341124076938E-01  3.197756141628E-01  1.254582399669E-01
C12  3.512819390744E-01  4.538084691216E-01  3.495650235069E-01
C13  3.069714786872E-01 -4.396566576771E-01 -3.109389886680E-01
H14  1.061346914989E-01  3.185578949633E-01 -5.946580800258E-03
H15  3.426823433436E-01  4.073971194076E-01  1.865905611402E-01
C16  4.261845705233E-01  4.724820188817E-01  4.230880047315E-01
H17  2.612372276074E-01 -4.107718854516E-01 -2.052280418624E-01
C18  3.776839288534E-01 -4.189087492626E-01 -2.350818009593E-01
C19  4.868417292692E-01  4.313649052727E-01  2.936645533272E-01
C20  4.401861993668E-01 -4.580660526537E-01 -3.651996747618E-01
H21  3.872064761679E-01 -3.706482761341E-01 -7.335519228224E-02
H22  4.771251730339E-01  3.781341381895E-01  1.338942785897E-01
C23 -4.401861993668E-01  4.580660526537E-01  3.651996747618E-01
C24 -4.868417292692E-01 -4.313649052727E-01 -2.936645533272E-01
C25 -3.776839288534E-01  4.189087492626E-01  2.350818009593E-01
C26 -4.261845705233E-01 -4.724820188817E-01 -4.230880047315E-01
H27 -4.771251730339E-01 -3.781341381895E-01 -1.338942785897E-01
H28 -3.872064761679E-01  3.706482761341E-01  7.335519228224E-02
C29 -3.069714786872E-01  4.396566576771E-01  3.109389886680E-01
C30 -3.512819390744E-01 -4.538084691216E-01 -3.495650235069E-01
H31 -2.612372276074E-01  4.107718854516E-01  2.052280418624E-01
C32 -2.918289523733E-01  4.992055352255E-01 -4.746135408178E-01
H33 -3.426823433436E-01 -4.073971194076E-01 -1.865905611402E-01
C34 -2.139645723445E-01 -4.974341157633E-01 -3.933393138318E-01
C35 -1.931304860076E-01 -3.989288405906E-01 -2.100461456190E-01
C36 -1.582225774280E-01  4.040506432194E-01 -4.977199482716E-01
H37 -2.341124076938E-01 -3.197756141628E-01 -1.254582399669E-01
C38 -1.200163512580E-01 -3.973314518350E-01 -1.355029461570E-01
H39 -1.715843122269E-01  3.212669694319E-01  3.641561162782E-01
C40 -8.514004502008E-02  4.059597499758E-01 -4.238028190543E-01
H41 -1.061346914989E-01 -3.185578949633E-01  5.946580800259E-03
C42 -6.537891874333E-02 -4.938678954555E-01 -2.431993685235E-01
H43 -4.356424199146E-02  3.280478680129E-01  4.924760673736E-01
H44 -8.105049932550E-03 -4.914430905492E-01 -1.877664932064E-01
C45 -1.589154104311E-01  1.018139079765E-01  1.031694647367E-02
H46 -1.710636172860E-01  1.860219528100E-01 -1.276827064702E-01
C47 -8.666026880067E-02  9.890087207318E-02  9.137388400373E-02
C48 -2.153453927659E-01  1.438653724157E-04  1.067773779655E-01
H49 -4.397767485821E-02  1.772370366612E-01  1.254838239767E-02
C50 -6.898208068623E-02 -4.388534291485E-03  2.711423648850E-01
C51 -1.966122894347E-01 -1.017546387582E-01  2.892216299091E-01
C52 -2.924156022088E-01  2.254558258705E-03  2.101401827294E-02
H53 -1.214545426652E-02 -8.756034146355E-03  3.303400690775E-01
C54 -1.245827659566E-01 -1.033532401884E-01  3.715638847081E-01
H55 -2.383496289066E-01 -1.840052610698E-01  3.663288892587E-01
C56 -3.516049438485E-01 -4.237213720403E-02  1.477554862037E-01
C57 -3.073727182320E-01  5.755609085555E-02 -1.949405272087E-01
H58 -1.120789865882E-01 -1.842652903550E-01 -4.878708297814E-01
H59 -3.427167758108E-01 -8.433179704230E-02  3.121380357835E-01
C60 -4.263769126320E-01 -2.592522415071E-02  7.499390470957E-02
H61 -2.615015156322E-01  8.554348943553E-02 -3.007049616132E-01
C62 -3.782793445670E-01  7.607267759317E-02 -2.706073577644E-01
C63 -4.863093995780E-01 -6.423851900041E-02  2.081647888286E-01
C64 -4.405401293258E-01  3.893893763439E-02 -1.384919145048E-01
H65 -3.882177217061E-01  1.224064558817E-01 -4.329222278839E-01
H66 -4.756776222636E-01 -1.146275563407E-01  3.687012924832E-01
C67  4.405401293258E-01 -3.893893763439E-02  1.384919145048E-01
C68  4.863093995780E-01  6.423851900041E-02 -2.081647888286E-01
C69  3.782793445670E-01 -7.607267759317E-02  2.706073577644E-01
C70  4.263769126320E-01  2.592522415071E-02 -7.499390470957E-02
H71  4.756776222636E-01  1.146275563407E-01 -3.687012924832E-01
H72  3.882177217061E-01 -1.224064558817E-01  4.329222278839E-01
C73  3.073727182320E-01 -5.755609085555E-02  1.949405272087E-01
C74  3.516049438485E-01  4.237213720403E-02 -1.477554862037E-01
H75  2.615015156322E-01 -8.554348943553E-02  3.007049616132E-01
C76  2.924156022088E-01 -2.254558258705E-03 -2.101401827294E-02
H77  3.427167758108E-01  8.433179704230E-02 -3.121380357835E-01
C78  2.153453927659E-01 -1.438653724157E-04 -1.067773779655E-01
C79  1.966122894347E-01  1.017546387582E-01 -2.892216299091E-01
C80  1.589154104311E-01 -1.018139079765E-01 -1.031694647367E-02
H81  2.383496289066E-01  1.840052610698E-01 -3.663288892587E-01
C82  1.245827659566E-01  1.033532401884E-01 -3.715638847081E-01
H83  1.710636172860E-01 -1.860219528100E-01  1.276827064702E-01
C84  8.666026880067E-02 -9.890087207318E-02 -9.137388400373E-02
H85  1.120789865882E-01  1.842652903550E-01  4.878708297814E-01
C86  6.898208068623E-02  4.388534291485E-03 -2.711423648850E-01
H87  4.397767485821E-02 -1.772370366612E-01 -1.254838239767E-02
H88  1.214545426652E-02  8.756034146355E-03 -3.303400690775E-01


#===END
