###############################################################################
#
#                    CRYSTAL17 CIF FILE
#
###############################################################################

data_OPT_STEP_0

_symmetry_space_group_name_H-M 'P 1'
_cell_length_a     17.97300000
_cell_length_b      7.35200000
_cell_length_c      6.24500000
_cell_angle_alpha   90.000000
_cell_angle_beta   90.646004
_cell_angle_gamma   90.000000

loop_
_atom_site_label
_atom_site_fract_x
_atom_site_fract_y
_atom_site_fract_z
C1  1.585739866103E-01 -3.982538311046E-01  4.913510003985E-01
H2  1.713834490875E-01 -3.138344935899E-01 -3.713457232851E-01
C3  8.560871360147E-02 -4.044655660794E-01  4.162159040761E-01
C4  2.148840916134E-01 -4.973939650377E-01  3.906838955908E-01
H5  4.318744587096E-02 -3.276959439444E-01  4.980871825133E-01
C6  6.695216279211E-02  4.912322136617E-01  2.379264442600E-01
C7  1.953372954194E-01  4.015469142998E-01  2.082351756853E-01
C8  2.921714232895E-01 -4.958929057281E-01  4.754519958039E-01
H9  9.656695974422E-03  4.843669252039E-01  1.829462615286E-01
C10  1.224676675879E-01  3.960359487417E-01  1.322645668466E-01
H11  2.369905437364E-01  3.219439090522E-01  1.269667817707E-01
C12  3.516225259918E-01  4.609662958368E-01  3.489854133437E-01
C13  3.069271912250E-01 -4.457012838588E-01 -3.065277869343E-01
H14  1.093482774917E-01  3.146773860807E-01 -7.597845749864E-03
H15  3.430511813612E-01  4.207588666200E-01  1.838009130356E-01
C16  4.263026545454E-01  4.744335756385E-01  4.244054470138E-01
H17  2.608925579357E-01 -4.203542679434E-01 -2.003640003586E-01
C18  3.777197851442E-01 -4.278480513996E-01 -2.294184510360E-01
C19  4.865796293926E-01  4.327744423493E-01  2.940384813167E-01
C20  4.403152473234E-01 -4.618404712538E-01 -3.614908295319E-01
H21  3.872658085174E-01 -3.837101480664E-01 -6.597883705008E-02
H22  4.763945087874E-01  3.806119891644E-01  1.340493749468E-01
C23 -4.404110813692E-01  4.572866437655E-01  3.652169307259E-01
C24 -4.865714994545E-01 -4.343519439230E-01 -2.914612831812E-01
C25 -3.782434882762E-01  4.149880202699E-01  2.350559921597E-01
C26 -4.262588286100E-01 -4.721232190925E-01 -4.236886530073E-01
H27 -4.764082865102E-01 -3.828945926843E-01 -1.311436111590E-01
H28 -3.881583893565E-01  3.645316721861E-01  7.445412734908E-02
C29 -3.074170056942E-01  4.363992829627E-01  3.094706745258E-01
C30 -3.512643569310E-01 -4.504700360808E-01 -3.528241239588E-01
H31 -2.618461853039E-01  4.048741280726E-01  2.041590798914E-01
C32 -2.920731312925E-01 -4.989419287613E-01 -4.781475267402E-01
H33 -3.423479377933E-01 -4.023064557454E-01 -1.906516123203E-01
C34 -2.144258734970E-01 -4.949719461734E-01 -3.958780402747E-01
C35 -1.944054800229E-01 -3.956272875326E-01 -2.125893400239E-01
C36 -1.585640012488E-01  4.039829041383E-01 -4.960520013986E-01
H37 -2.354714928640E-01 -3.138264440408E-01 -1.321625689366E-01
C38 -1.221314496267E-01 -3.979422629049E-01 -1.316744946016E-01
H39 -1.712644804254E-01  3.214105230320E-01  3.651276865237E-01
C40 -8.619160021932E-02  4.025933118232E-01 -4.162130309737E-01
H41 -1.088654005954E-01 -3.196152185276E-01  1.047790526978E-02
C42 -6.740883663744E-02 -4.982471475023E-01 -2.341305593777E-01
H43 -4.435447097875E-02  3.231148874074E-01 -4.968883677147E-01
H44 -1.059380822457E-02 -4.983201311990E-01 -1.744801625994E-01
C45 -1.585640012488E-01  9.601709586167E-02  3.947998600610E-03
H46 -1.712644804254E-01  1.785894769680E-01 -1.348723134771E-01
C47 -8.619160021932E-02  9.740668817682E-02  8.378696902549E-02
C48 -2.144258734970E-01 -5.028053826578E-03  1.041219597245E-01
H49 -4.435447097876E-02  1.768851125926E-01  3.111632284547E-03
C50 -6.740883663744E-02 -1.752852497688E-03  2.658694406215E-01
C51 -1.944054800229E-01 -1.043727124674E-01  2.874106599753E-01
C52 -2.920731312925E-01 -1.058071238711E-03  2.185247325899E-02
H53 -1.059380822458E-02 -1.679868801006E-03  3.255198373998E-01
C54 -1.221314496267E-01 -1.020577370951E-01  3.683255053976E-01
H55 -2.354714928640E-01 -1.861735559592E-01  3.678374310626E-01
C56 -3.512643569310E-01 -4.952996391921E-02  1.471758760404E-01
C57 -3.074170056942E-01  6.360071703727E-02 -1.905293254750E-01
H58 -1.088654005954E-01 -1.803847814724E-01 -4.895220947310E-01
H59 -3.423479377933E-01 -9.769354425462E-02  3.093483876789E-01
C60 -4.262588286100E-01 -2.787678090751E-02  7.631134699193E-02
H61 -2.618461853040E-01  9.512587192737E-02 -2.958409201094E-01
C62 -3.782434882762E-01  8.501197973014E-02 -2.649440078411E-01
C63 -4.865714994546E-01 -6.564805607699E-02  2.085387168180E-01
C64 -4.404110813692E-01  4.271335623449E-02 -1.347830692749E-01
H65 -3.881583893565E-01  1.354683278139E-01 -4.255458726517E-01
H66 -4.764082865102E-01 -1.171054073157E-01  3.688563888402E-01
C67  4.403152473234E-01 -3.815952874619E-02  1.385091704673E-01
C68  4.865796293926E-01  6.722555765071E-02 -2.059615186841E-01
C69  3.777197851442E-01 -7.215194860038E-02  2.705815489632E-01
C70  4.263026545454E-01  2.556642436153E-02 -7.559455298696E-02
H71  4.763945087874E-01  1.193880108356E-01 -3.659506250540E-01
H72  3.872658085174E-01 -1.162898519336E-01  4.340211629491E-01
C73  3.069271912250E-01 -5.429871614119E-02  1.934722130649E-01
C74  3.516225259918E-01  3.903370416322E-02 -1.510145866571E-01
H75  2.608925579357E-01 -7.964573205658E-02  2.996359996406E-01
C76  2.921714232895E-01 -4.107094271899E-03 -2.454800419693E-02
H77  3.430511813612E-01  7.924113338003E-02 -3.161990869652E-01
C78  2.148840916134E-01 -2.606034962323E-03 -1.093161044100E-01
C79  1.953372954194E-01  9.845308570022E-02 -2.917648243155E-01
C80  1.585739866103E-01 -1.017461688954E-01 -8.648999602260E-03
H81  2.369905437364E-01  1.780560909478E-01 -3.730332182301E-01
C82  1.224676675879E-01  1.039640512583E-01 -3.677354331542E-01
H83  1.713834490875E-01 -1.861655064101E-01  1.286542767141E-01
C84  8.560871360147E-02 -9.553443392057E-02 -8.378409592470E-02
H85  1.093482774917E-01  1.853226139193E-01  4.924021542493E-01
C86  6.695216279210E-02  8.767786338275E-03 -2.620735557408E-01
H87  4.318744587095E-02 -1.723040560556E-01 -1.912817487511E-03
H88  9.656695974419E-03  1.563307479611E-02 -3.170537384722E-01


#===END
