###############################################################################
#
#                    CRYSTAL17 CIF FILE
#
###############################################################################

data_OPT_STEP_0

_symmetry_space_group_name_H-M 'P 1'
_cell_length_a     17.97300000
_cell_length_b      7.35200000
_cell_length_c      6.24500000
_cell_angle_alpha   90.000000
_cell_angle_beta   90.646004
_cell_angle_gamma   90.000000

loop_
_atom_site_label
_atom_site_fract_x
_atom_site_fract_y
_atom_site_fract_z
C1  1.589377937116E-01 -4.003203566412E-01  4.921724396539E-01
H2  1.716468858079E-01 -3.165605797454E-01 -3.699839068215E-01
C3  8.641882004533E-02 -4.013359548229E-01  4.134052557032E-01
C4  2.148571885922E-01  4.976456142976E-01  3.935899745576E-01
H5  4.439070084643E-02 -3.222144658573E-01  4.938790005960E-01
C6  6.770960749276E-02  4.966745616303E-01  2.334761197401E-01
C7  1.950550776306E-01  3.970836331005E-01  2.109920427285E-01
C8  2.922247827267E-01  4.998449397646E-01  4.779020695059E-01
H9  1.073615869870E-02  4.941433846829E-01  1.754127894771E-01
C10  1.226797239698E-01  3.971277648528E-01  1.310499334263E-01
H11  2.362495088388E-01  3.152340164132E-01  1.310830920745E-01
C12  3.514790427509E-01  4.490672739241E-01  3.541563456207E-01
C13  3.073323195032E-01 -4.372237823198E-01 -3.089435141818E-01
H14  1.095024958319E-01  3.172004544671E-01 -9.869604875434E-03
H15  3.428004491976E-01  4.001791860847E-01  1.921376185803E-01
C16  4.263101942051E-01  4.692972661342E-01  4.262498556680E-01
H17  2.615829044748E-01 -4.063114700842E-01 -2.039740643796E-01
C18  3.781320785638E-01 -4.158539986533E-01 -2.338798126053E-01
C19  4.864995445968E-01  4.267153203477E-01  2.957506268874E-01
C20  4.404536914265E-01 -4.565920590201E-01 -3.641945067671E-01
H21  3.878725637873E-01 -3.658276563935E-01 -7.296690028417E-02
H22  4.762232960420E-01  3.707527353893E-01  1.374370602533E-01
C23 -4.404536914265E-01  4.565920590201E-01  3.641945067671E-01
C24 -4.864995445968E-01 -4.267153203477E-01 -2.957506268874E-01
C25 -3.781320785638E-01  4.158539986533E-01  2.338798126053E-01
C26 -4.263101942051E-01 -4.692972661342E-01 -4.262498556680E-01
H27 -4.762232960420E-01 -3.707527353893E-01 -1.374370602533E-01
H28 -3.878725637873E-01  3.658276563935E-01  7.296690028417E-02
C29 -3.073323195032E-01  4.372237823198E-01  3.089435141818E-01
C30 -3.514790427509E-01 -4.490672739241E-01 -3.541563456207E-01
H31 -2.615829044748E-01  4.063114700842E-01  2.039740643796E-01
C32 -2.922247827267E-01 -4.998449397646E-01 -4.779020695059E-01
H33 -3.428004491976E-01 -4.001791860847E-01 -1.921376185803E-01
C34 -2.148571885922E-01 -4.976456142976E-01 -3.935899745576E-01
C35 -1.950550776306E-01 -3.970836331005E-01 -2.109920427285E-01
C36 -1.589377937116E-01  4.003203566412E-01 -4.921724396539E-01
H37 -2.362495088388E-01 -3.152340164132E-01 -1.310830920745E-01
C38 -1.226797239698E-01 -3.971277648528E-01 -1.310499334263E-01
H39 -1.716468858079E-01  3.165605797454E-01  3.699839068215E-01
C40 -8.641882004533E-02  4.013359548229E-01 -4.134052557032E-01
H41 -1.095024958319E-01 -3.172004544671E-01  9.869604875433E-03
C42 -6.770960749276E-02 -4.966745616303E-01 -2.334761197401E-01
H43 -4.439070084643E-02  3.222144658573E-01 -4.938790005960E-01
H44 -1.073615869870E-02 -4.941433846829E-01 -1.754127894771E-01
C45 -1.582001941475E-01  9.808362139826E-02  4.769437855966E-03
H46 -1.710010437050E-01  1.813155631235E-01 -1.335104970135E-01
C47 -8.538149377542E-02  9.427707692029E-02  8.097632065256E-02
C48 -2.144527765182E-01 -6.763316186069E-05  1.070280386914E-01
H49 -4.315121600324E-02  1.714036345056E-01 -1.096549632752E-03
C50 -6.665139193675E-02 -7.195200466268E-03  2.614191161015E-01
C51 -1.946876978118E-01 -9.990943126809E-02  2.901675270186E-01
C52 -2.920197718553E-01  3.204083268634E-03  2.430254696100E-02
H53 -9.514345500366E-03 -1.145632828006E-02  3.179863653483E-01
C54 -1.219193932449E-01 -1.031495532062E-01  3.671108719774E-01
H55 -2.362125277617E-01 -1.794636633202E-01  3.719537413664E-01
C56 -3.514078401719E-01 -3.763094200653E-02  1.523468083175E-01
C57 -3.070118774160E-01  5.512321549823E-02 -1.929450527225E-01
H58 -1.087111822552E-01 -1.829078498588E-01 -4.917938538566E-01
H59 -3.425986699568E-01 -7.711386371940E-02  3.176850932236E-01
C60 -4.262512889503E-01 -2.274047140329E-02  7.815575564612E-02
H61 -2.611558387648E-01  8.108307406814E-02 -2.994509841303E-01
C62 -3.778311948566E-01  7.301792698381E-02 -2.694053694104E-01
C63 -4.866515842503E-01 -5.958893407535E-02  2.102508623888E-01
C64 -4.402726372661E-01  3.746494400082E-02 -1.374867465102E-01
H65 -3.875516340867E-01  1.175858361411E-01 -4.325339358858E-01
H66 -4.765794992557E-01 -1.072461535405E-01  3.722440741467E-01
C67  4.402726372661E-01 -3.746494400082E-02  1.374867465102E-01
C68  4.866515842503E-01  5.958893407535E-02 -2.102508623888E-01
C69  3.778311948566E-01 -7.301792698381E-02  2.694053694104E-01
C70  4.262512889503E-01  2.274047140329E-02 -7.815575564612E-02
H71  4.765794992557E-01  1.072461535405E-01 -3.722440741467E-01
H72  3.875516340867E-01 -1.175858361411E-01  4.325339358858E-01
C73  3.070118774160E-01 -5.512321549823E-02  1.929450527225E-01
C74  3.514078401719E-01  3.763094200653E-02 -1.523468083175E-01
H75  2.611558387648E-01 -8.108307406814E-02  2.994509841303E-01
C76  2.920197718553E-01 -3.204083268634E-03 -2.430254696100E-02
H77  3.425986699568E-01  7.711386371940E-02 -3.176850932236E-01
C78  2.144527765182E-01  6.763316186069E-05 -1.070280386914E-01
C79  1.946876978118E-01  9.990943126809E-02 -2.901675270186E-01
C80  1.582001941475E-01 -9.808362139826E-02 -4.769437855966E-03
H81  2.362125277617E-01  1.794636633202E-01 -3.719537413664E-01
C82  1.219193932449E-01  1.031495532062E-01 -3.671108719774E-01
H83  1.710010437050E-01 -1.813155631235E-01  1.335104970135E-01
C84  8.538149377542E-02 -9.427707692029E-02 -8.097632065256E-02
H85  1.087111822552E-01  1.829078498588E-01  4.917938538566E-01
C86  6.665139193675E-02  7.195200466268E-03 -2.614191161015E-01
H87  4.315121600324E-02 -1.714036345056E-01  1.096549632752E-03
H88  9.514345500366E-03  1.145632828006E-02 -3.179863653483E-01


#===END
