###############################################################################
#
#                    CRYSTAL17 CIF FILE
#
###############################################################################

data_OPT_STEP_0

_symmetry_space_group_name_H-M 'P 1'
_cell_length_a     17.97300000
_cell_length_b      7.35200000
_cell_length_c      6.24500000
_cell_angle_alpha   90.000000
_cell_angle_beta   90.646004
_cell_angle_gamma   90.000000

loop_
_atom_site_label
_atom_site_fract_x
_atom_site_fract_y
_atom_site_fract_z
C1  1.578539386583E-01 -4.010616575316E-01  4.964234785317E-01
H2  1.704426556073E-01 -3.178873979402E-01 -3.651557693322E-01
C3  8.504629533541E-02 -4.043440517665E-01  4.201332700546E-01
C4  2.141791811702E-01 -4.993100720703E-01  3.944727735610E-01
H5  4.291363630961E-02 -3.271152094893E-01 -4.975903490641E-01
C6  6.624656253406E-02  4.945359102954E-01  2.395339877583E-01
C7  1.942235989924E-01  4.010022787133E-01  2.112859520020E-01
C8  2.918853274502E-01 -4.953136826636E-01  4.766752729644E-01
H9  9.168452289910E-03  4.905761366950E-01  1.826513181489E-01
C10  1.214887389426E-01  3.983188196008E-01  1.341959476935E-01
H11  2.355882897345E-01  3.215533913105E-01  1.286735369535E-01
C12  3.511459356301E-01  4.550254578376E-01  3.521333122975E-01
C13  3.072794724357E-01 -4.329877570944E-01 -3.101878511928E-01
H14  1.083160853087E-01  3.188958935384E-01 -7.163327877361E-03
H15  3.423690498322E-01  4.071809429412E-01  1.897518371684E-01
C16  4.261210532042E-01  4.730613079948E-01  4.246138400568E-01
H17  2.616868774131E-01 -4.017703611817E-01 -2.047722710263E-01
C18  3.781608083272E-01 -4.129815404761E-01 -2.350510114826E-01
C19  4.863640929919E-01  4.290178813515E-01  2.947312981802E-01
C20  4.404585225645E-01 -4.550789967080E-01 -3.648851088034E-01
H21  3.879504543123E-01 -3.636018065462E-01 -7.389135890146E-02
H22  4.760849332535E-01  3.743161575329E-01  1.357967142464E-01
C23 -4.404585225645E-01  4.550789967080E-01  3.648851088034E-01
C24 -4.863640929919E-01 -4.290178813515E-01 -2.947312981802E-01
C25 -3.781608083272E-01  4.129815404761E-01  2.350510114826E-01
C26 -4.261210532042E-01 -4.730613079948E-01 -4.246138400568E-01
H27 -4.760849332535E-01 -3.743161575329E-01 -1.357967142464E-01
H28 -3.879504543123E-01  3.636018065462E-01  7.389135890146E-02
C29 -3.072794724357E-01  4.329877570944E-01  3.101878511928E-01
C30 -3.511459356301E-01 -4.550254578376E-01 -3.521333122975E-01
H31 -2.616868774131E-01  4.017703611817E-01  2.047722710263E-01
C32 -2.918853274502E-01  4.953136826636E-01 -4.766752729644E-01
H33 -3.423690498322E-01 -4.071809429412E-01 -1.897518371684E-01
C34 -2.141791811702E-01  4.993100720703E-01 -3.944727735610E-01
C35 -1.942235989924E-01 -4.010022787133E-01 -2.112859520020E-01
C36 -1.578539386583E-01  4.010616575316E-01 -4.964234785317E-01
H37 -2.355882897345E-01 -3.215533913105E-01 -1.286735369535E-01
C38 -1.214887389426E-01 -3.983188196008E-01 -1.341959476935E-01
H39 -1.704426556073E-01  3.178873979402E-01  3.651557693322E-01
C40 -8.504629533541E-02  4.043440517665E-01 -4.201332700546E-01
H41 -1.083160853087E-01 -3.188958935384E-01  7.163327877361E-03
C42 -6.624656253406E-02 -4.945359102954E-01 -2.395339877583E-01
H43 -4.291363630961E-02  3.271152094893E-01  4.975903490641E-01
H44 -9.168452289910E-03 -4.905761366950E-01 -1.826513181489E-01
C45 -1.578539386583E-01  9.893834246844E-02  3.576521467465E-03
H46 -1.704426556073E-01  1.821126020598E-01 -1.348442306686E-01
C47 -8.504629533541E-02  9.565594823354E-02  7.986672994463E-02
C48 -2.141791811702E-01  6.899279296790E-04  1.055272264382E-01
H49 -4.291363630961E-02  1.728847905107E-01 -2.409650936705E-03
C50 -6.624656253407E-02 -5.464089704570E-03  2.604660122409E-01
C51 -1.942235989924E-01 -9.899772128672E-02  2.887140479972E-01
C52 -2.918853274502E-01  4.686317336371E-03  2.332472703479E-02
H53 -9.168452289914E-03 -9.423863304951E-03  3.173486818503E-01
C54 -1.214887389426E-01 -1.016811803992E-01  3.658040523057E-01
H55 -2.355882897345E-01 -1.784466086895E-01  3.713264630457E-01
C56 -3.511459356301E-01 -4.497454216240E-02  1.478666877017E-01
C57 -3.072794724357E-01  6.701224290560E-02 -1.898121488080E-01
H58 -1.083160853088E-01 -1.811041064616E-01 -4.928366721234E-01
H59 -3.423690498322E-01 -9.281905705876E-02  3.102481628308E-01
C60 -4.261210532042E-01 -2.693869200517E-02  7.538615994242E-02
H61 -2.616868774131E-01  9.822963881828E-02 -2.952277289745E-01
C62 -3.781608083272E-01  8.701845952394E-02 -2.649489885182E-01
C63 -4.863640929919E-01 -7.098211864853E-02  2.052687018190E-01
C64 -4.404585225645E-01  4.492100329203E-02 -1.351148911974E-01
H65 -3.879504543123E-01  1.363981934538E-01 -4.261086410993E-01
H66 -4.760849332535E-01 -1.256838424671E-01  3.642032857528E-01
C67  4.404585225645E-01 -4.492100329203E-02  1.351148911958E-01
C68  4.863640929919E-01  7.098211864853E-02 -2.052687018206E-01
C69  3.781608083272E-01 -8.701845952394E-02  2.649489885166E-01
C70  4.261210532042E-01  2.693869200517E-02 -7.538615994402E-02
H71  4.760849332535E-01  1.256838424671E-01 -3.642032857544E-01
H72  3.879504543123E-01 -1.363981934538E-01  4.261086410977E-01
C73  3.072794724357E-01 -6.701224290560E-02  1.898121488064E-01
C74  3.511459356301E-01  4.497454216240E-02 -1.478666877033E-01
H75  2.616868774131E-01 -9.822963881828E-02  2.952277289729E-01
C76  2.918853274502E-01 -4.686317336371E-03 -2.332472703639E-02
H77  3.423690498322E-01  9.281905705876E-02 -3.102481628324E-01
C78  2.141791811702E-01 -6.899279296791E-04 -1.055272264398E-01
C79  1.942235989924E-01  9.899772128672E-02 -2.887140479988E-01
C80  1.578539386583E-01 -9.893834246844E-02 -3.576521469066E-03
H81  2.355882897345E-01  1.784466086895E-01 -3.713264630473E-01
C82  1.214887389426E-01  1.016811803992E-01 -3.658040523073E-01
H83  1.704426556073E-01 -1.821126020598E-01  1.348442306670E-01
C84  8.504629533541E-02 -9.565594823354E-02 -7.986672994623E-02
H85  1.083160853087E-01  1.811041064616E-01  4.928366721218E-01
C86  6.624656253406E-02  5.464089704570E-03 -2.604660122425E-01
H87  4.291363630961E-02 -1.728847905107E-01  2.409650935103E-03
H88  9.168452289907E-03  9.423863304951E-03 -3.173486818519E-01


#===END
