###############################################################################
#
#                    CRYSTAL17 CIF FILE
#
###############################################################################

data_OPT_STEP_0

_symmetry_space_group_name_H-M 'P 1'
_cell_length_a     17.97300000
_cell_length_b      7.35200000
_cell_length_c      6.24500000
_cell_angle_alpha   90.000000
_cell_angle_beta   90.646004
_cell_angle_gamma   90.000000

loop_
_atom_site_label
_atom_site_fract_x
_atom_site_fract_y
_atom_site_fract_z
C1  1.594749229109E-01 -3.974308953124E-01  4.939810267662E-01
H2  1.732870764889E-01 -3.114489669608E-01 -3.708113202606E-01
C3  8.668387614347E-02 -3.976464326495E-01  4.174433214534E-01
C4  2.144485268433E-01  4.970470277682E-01  3.958283737998E-01
H5  4.537460436990E-02 -3.154692415227E-01  4.969111669904E-01
C6  6.682505148995E-02  4.975455439006E-01  2.405829751298E-01
C7  1.934771635851E-01  3.927023335600E-01  2.172373194871E-01
C8  2.921400305518E-01  4.994668739225E-01  4.771990243998E-01
H9  9.714420404461E-03  4.964281643799E-01  1.836809547795E-01
C10  1.207843840779E-01  3.934384731676E-01  1.395685453590E-01
H11  2.340594547035E-01  3.072699312463E-01  1.395415334150E-01
C12  3.512145057885E-01  4.559986665502E-01  3.490981958932E-01
C13  3.074154046780E-01 -4.442465402231E-01 -3.073595462145E-01
H14  1.065877410726E-01  3.105173529095E-01  1.580408966987E-03
H15  3.419682857545E-01  4.130273283244E-01  1.851248149509E-01
C16  4.262409219453E-01  4.746971697681E-01  4.207636067801E-01
H17  2.616694682105E-01 -4.183742857998E-01 -2.004177956844E-01
C18  3.783198896744E-01 -4.223939046412E-01 -2.335222798785E-01
C19  4.865704109373E-01  4.356472465329E-01  2.891178810719E-01
C20  4.404146466119E-01 -4.583375385219E-01 -3.665518725162E-01
H21  3.884117076150E-01 -3.755858527476E-01 -7.147615405242E-02
H22  4.764031734357E-01  3.837887647282E-01  1.290235648208E-01
C23 -4.403116820807E-01  4.607895764974E-01  3.601558877416E-01
C24 -4.865807179099E-01 -4.314791397394E-01 -2.963818834259E-01
C25 -3.776433837460E-01  4.204421670283E-01  2.309521633172E-01
C26 -4.263205612101E-01 -4.718596249629E-01 -4.273304932410E-01
H27 -4.763996218619E-01 -3.797178171205E-01 -1.361694212849E-01
H28 -3.870124902589E-01  3.726559675049E-01  6.895681034674E-02
C29 -3.069287922411E-01  4.378540265985E-01  3.086389152455E-01
C30 -3.516723771343E-01 -4.554376653674E-01 -3.527113414092E-01
H31 -2.610692750291E-01  4.068541102163E-01  2.041052845657E-01
C32 -2.921045240302E-01  4.964178508893E-01 -4.764004981443E-01
H33 -3.434308333999E-01 -4.100379940409E-01 -1.893277104049E-01
C34 -2.148614382670E-01  4.994690466325E-01 -3.907335620656E-01
C35 -1.962656118573E-01 -4.044718682724E-01 -2.035871962220E-01
C36 -1.576630649482E-01  4.048058399305E-01 -4.934219750309E-01
H37 -2.384025818970E-01 -3.285004218467E-01 -1.195878172923E-01
C38 -1.238147331367E-01 -4.005397384791E-01 -1.243705160892E-01
H39 -1.693608530240E-01  3.237960496610E-01  3.656620895482E-01
C40 -8.511643767732E-02  4.094124452531E-01 -4.149856135965E-01
H41 -1.116259370144E-01 -3.237752516987E-01  1.965615998663E-02
C42 -6.753594793960E-02 -4.919338172635E-01 -2.314740285079E-01
H43 -4.216731247981E-02  3.353415898290E-01 -4.980643832376E-01
H44 -1.053608379459E-02 -4.862588920230E-01 -1.737454693485E-01
C45 -1.594749229109E-01  1.025691046876E-01  6.018973232977E-03
H46 -1.732870764889E-01  1.885510330392E-01 -1.291886797402E-01
C47 -8.668387614347E-02  1.023535673505E-01  8.255667854585E-02
C48 -2.144485268433E-01 -2.952972231774E-03  1.041716261994E-01
H49 -4.537460436990E-02  1.845307584773E-01  3.088833008822E-03
C50 -6.682505148995E-02 -2.454456099429E-03  2.594170248694E-01
C51 -1.934771635851E-01 -1.072976664400E-01  2.827626805121E-01
C52 -2.921400305518E-01 -5.331260775300E-04  2.280097559940E-02
H53 -9.714420404464E-03 -3.571835620103E-03  3.163190452197E-01
C54 -1.207843840779E-01 -1.065615268324E-01  3.604314546402E-01
H55 -2.340594547035E-01 -1.927300687537E-01  3.604584665842E-01
C56 -3.512145057885E-01 -4.400133344981E-02  1.509018041060E-01
C57 -3.074154046780E-01  5.575345977693E-02 -1.926404537863E-01
H58 -1.065877410726E-01 -1.894826470905E-01  4.984195910322E-01
H59 -3.419682857545E-01 -8.697267167560E-02  3.148751850483E-01
C60 -4.262409219453E-01 -2.530283023191E-02  7.923639321912E-02
H61 -2.616694682105E-01  8.162571420022E-02 -2.995822043164E-01
C62 -3.783198896744E-01  7.760609535881E-02 -2.664777201223E-01
C63 -4.865704109373E-01 -6.435275346708E-02  2.108821189273E-01
C64 -4.404146466119E-01  4.166246147810E-02 -1.334481274846E-01
H65 -3.884117076150E-01  1.244141472524E-01 -4.285238459484E-01
H66 -4.764031734357E-01 -1.162112352718E-01  3.709764351784E-01
C67  4.403116820807E-01 -3.921042350258E-02  1.398441122576E-01
C68  4.865807179099E-01  6.852086026061E-02 -2.036181165749E-01
C69  3.776433837460E-01 -7.955783297171E-02  2.690478366820E-01
C70  4.263205612101E-01  2.814037503713E-02 -7.266950675977E-02
H71  4.763996218619E-01  1.202821828795E-01 -3.638305787159E-01
H72  3.870124902589E-01 -1.273440324951E-01  4.310431896525E-01
C73  3.069287922411E-01 -6.214597340152E-02  1.913610847537E-01
C74  3.516723771343E-01  4.456233463262E-02 -1.472886585916E-01
H75  2.610692750291E-01 -9.314588978373E-02  2.958947154335E-01
C76  2.921045240302E-01 -3.582149110718E-03 -2.359950185651E-02
H77  3.434308333999E-01  8.996200595906E-02 -3.106722895959E-01
C78  2.148614382670E-01 -5.309533675192E-04 -1.092664379352E-01
C79  1.962656118573E-01  9.552813172756E-02 -2.964128037788E-01
C80  1.576630649482E-01 -9.519416006950E-02 -6.578024969893E-03
H81  2.384025818970E-01  1.714995781533E-01 -3.804121827085E-01
C82  1.238147331367E-01  9.946026152095E-02 -3.756294839116E-01
H83  1.693608530240E-01 -1.762039503390E-01  1.343379104510E-01
C84  8.511643767731E-02 -9.058755474687E-02 -8.501438640435E-02
H85  1.116259370144E-01  1.762247483013E-01  4.803438400126E-01
C86  6.753594793959E-02  8.066182736534E-03 -2.685259714929E-01
H87  4.216731247981E-02 -1.646584101710E-01 -1.935616763236E-03
H88  1.053608379459E-02  1.374110797701E-02 -3.262545306523E-01


#===END
