###############################################################################
#
#                    CRYSTAL17 CIF FILE
#
###############################################################################

data_OPT_STEP_0

_symmetry_space_group_name_H-M 'P 1'
_cell_length_a     17.97300000
_cell_length_b      7.35200000
_cell_length_c      6.24500000
_cell_angle_alpha   90.000000
_cell_angle_beta   90.646004
_cell_angle_gamma   90.000000

loop_
_atom_site_label
_atom_site_fract_x
_atom_site_fract_y
_atom_site_fract_z
C1  1.587358501178E-01 -3.956633610411E-01  4.894512800365E-01
H2  1.714915116879E-01 -3.090195176945E-01 -3.751211411221E-01
C3  8.576751527548E-02 -4.026575660696E-01  4.144513109061E-01
C4  2.149197507070E-01 -4.968800298607E-01  3.909973015253E-01
H5  4.342921926393E-02 -3.246313844830E-01  4.949946342204E-01
C6  6.691032717262E-02  4.903184468547E-01  2.385284790036E-01
C7  1.950334763039E-01  3.984181663497E-01  2.116669980961E-01
C8  2.923596460061E-01 -4.941360203788E-01  4.746650452391E-01
H9  9.627009431416E-03  4.832350538856E-01  1.835153160775E-01
C10  1.221863669085E-01  3.922418832395E-01  1.356896818510E-01
H11  2.365363638917E-01  3.171546859246E-01  1.322817263219E-01
C12  3.516151907329E-01  4.552390704108E-01  3.508012190814E-01
C13  3.073377567610E-01 -4.350052832571E-01 -3.108143900670E-01
H14  1.088971428321E-01  3.083886225715E-01 -2.110257865836E-03
H15  3.429072210775E-01  4.097244910197E-01  1.876084264287E-01
C16  4.264210607752E-01  4.696376036744E-01  4.252739979487E-01
H17  2.615066782504E-01 -4.024711100548E-01 -2.066749055988E-01
C18  3.781253798033E-01 -4.201562386537E-01 -2.330459613565E-01
C19  4.867452715816E-01  4.284283282648E-01  2.945929108476E-01
C20  4.405115480342E-01 -4.629899396187E-01 -3.622246091430E-01
H21  3.878331435643E-01 -3.725385066011E-01 -7.116091236171E-02
H22  4.765624367561E-01  3.766526657387E-01  1.343985811372E-01
C23 -4.402147806585E-01  4.561371754006E-01  3.644831511148E-01
C24 -4.864058572656E-01 -4.386980580075E-01 -2.909068536503E-01
C25 -3.778378936171E-01  4.226798330158E-01  2.314284818392E-01
C26 -4.261404223802E-01 -4.769191910566E-01 -4.228201020724E-01
H27 -4.762403585415E-01 -3.868539161100E-01 -1.307944049685E-01
H28 -3.875910543096E-01  3.757033136514E-01  6.927205203745E-02
C29 -3.070064401582E-01  4.470952835645E-01  3.051840713930E-01
C30 -3.512716921899E-01 -4.561972615068E-01 -3.510083182211E-01
H31 -2.612320649892E-01  4.227572859612E-01  1.978481746513E-01
C32 -2.918849085759E-01 -4.971850434120E-01 -4.789344773050E-01
H33 -3.424918980769E-01 -4.133408313456E-01 -1.868440989272E-01
C34 -2.143902144034E-01 -4.944580109965E-01 -3.955646343402E-01
C35 -1.947092991384E-01 -3.987560354827E-01 -2.091575176130E-01
C36 -1.584021377413E-01  4.065733742018E-01 -4.979517217606E-01
H37 -2.359256727088E-01 -3.186156671684E-01 -1.268476243854E-01
C38 -1.224127503061E-01 -4.017363284071E-01 -1.282493795972E-01
H39 -1.711564178250E-01  3.262254989274E-01  3.613522686867E-01
C40 -8.603279854531E-02  4.044013118330E-01 -4.179776241437E-01
H41 -1.093165352549E-01 -3.259039820367E-01  1.596549315381E-02
C42 -6.745067225687E-02 -4.991609143093E-01 -2.335285246341E-01
H43 -4.411269758572E-02  3.261794468687E-01 -4.999809160075E-01
H44 -1.062349476758E-02 -4.994520025173E-01 -1.739111080506E-01
C45 -1.587358501178E-01  1.043366389589E-01  1.054871996267E-02
H46 -1.714915116879E-01  1.909804823055E-01 -1.248788588787E-01
C47 -8.576751527548E-02  9.734243393036E-02  8.554868909309E-02
C48 -2.149197507070E-01  3.119970139282E-03  1.090026984739E-01
H49 -4.342921926393E-02  1.753686155170E-01  5.005365778756E-03
C50 -6.691032717262E-02 -9.681553145267E-03  2.614715209956E-01
C51 -1.950334763039E-01 -1.015818336503E-01  2.883330019031E-01
C52 -2.923596460061E-01  5.863979621191E-03  2.533495476007E-02
H53 -9.627009431419E-03 -1.676494611439E-02  3.164846839217E-01
C54 -1.221863669085E-01 -1.077581167605E-01  3.643103181482E-01
H55 -2.365363638917E-01 -1.828453140754E-01  3.677182736773E-01
C56 -3.516151907329E-01 -4.476092958923E-02  1.491987809178E-01
C57 -3.073377567610E-01  6.499471674293E-02 -1.891856099338E-01
H58 -1.088971428321E-01 -1.916113774285E-01 -4.978897421350E-01
H59 -3.429072210775E-01 -9.027550898028E-02  3.123915735705E-01
C60 -4.264210607752E-01 -3.036239632563E-02  7.472600205052E-02
H61 -2.615066782504E-01  9.752888994518E-02 -2.933250944020E-01
C62 -3.781253798033E-01  7.984376134630E-02 -2.669540386443E-01
C63 -4.867452715816E-01 -7.157167173517E-02  2.054070891516E-01
C64 -4.405115480342E-01  3.701006038126E-02 -1.377753908578E-01
H65 -3.878331435643E-01  1.274614933989E-01 -4.288390876391E-01
H66 -4.765624367561E-01 -1.233473342613E-01  3.656014188620E-01
C67  4.402147806585E-01 -4.386282459943E-02  1.355168488844E-01
C68  4.864058572656E-01  6.130194199252E-02 -2.090931463505E-01
C69  3.778378936171E-01 -7.732016698422E-02  2.685715181600E-01
C70  4.261404223802E-01  2.308080894342E-02 -7.717989792838E-02
H71  4.762403585415E-01  1.131460838900E-01 -3.692055950323E-01
H72  3.875910543096E-01 -1.242966863486E-01  4.307279479617E-01
C73  3.070064401582E-01 -5.290471643553E-02  1.948159286062E-01
C74  3.512716921899E-01  4.380273849320E-02 -1.489916817797E-01
H75  2.612320649892E-01 -7.724271403877E-02  3.021518253479E-01
C76  2.918849085759E-01  2.814956588003E-03 -2.106552269585E-02
H77  3.424918980769E-01  8.665916865438E-02 -3.131559010736E-01
C78  2.143902144034E-01  5.541989003536E-03 -1.044353656606E-01
C79  1.947092991384E-01  1.012439645173E-01 -2.908424823878E-01
C80  1.584021377413E-01 -9.342662579815E-02 -2.048278240202E-03
H81  2.359256727088E-01  1.813843328316E-01 -3.731523756154E-01
C82  1.224127503061E-01  9.826367159290E-02 -3.717506204036E-01
H83  1.711564178250E-01 -1.737745010726E-01  1.386477313125E-01
C84  8.603279854531E-02 -9.559868816703E-02 -8.202237585710E-02
H85  1.093165352549E-01  1.740960179633E-01  4.840345068454E-01
C86  6.745067225687E-02  8.390856906962E-04 -2.664714753667E-01
H87  4.411269758572E-02 -1.738205531313E-01 -1.908399330147E-05
H88  1.062349476758E-02  5.479974827256E-04 -3.260888919502E-01


#===END
