###############################################################################
#
#                    CRYSTAL17 CIF FILE
#
###############################################################################

data_OPT_STEP_0

_symmetry_space_group_name_H-M 'P 1'
_cell_length_a     17.97300000
_cell_length_b      7.35200000
_cell_length_c      6.24500000
_cell_angle_alpha   90.000000
_cell_angle_beta   90.646004
_cell_angle_gamma   90.000000

loop_
_atom_site_label
_atom_site_fract_x
_atom_site_fract_y
_atom_site_fract_z
C1  1.585391509685E-01 -4.335126336085E-01  4.873976658216E-01
H2  1.707809193758E-01 -3.447545643549E-01 -3.785767944697E-01
C3  8.642510454896E-02 -4.370235763448E-01  4.052734385726E-01
C4  2.150034398432E-01  4.618815632568E-01  3.946630971569E-01
H5  4.403526085345E-02 -3.532388690203E-01  4.780277639664E-01
C6  6.875228534817E-02  4.544621722429E-01  2.297589830445E-01
C7  1.962312473671E-01  3.545676140317E-01  2.165438160596E-01
C8  2.922474621506E-01  4.705852302044E-01  4.793849841896E-01
H9  1.210679918173E-02  4.505507820600E-01  1.687330399546E-01
C10  1.241361279124E-01  3.511035427870E-01  1.343408144594E-01
H11  2.380603569399E-01  2.701609067103E-01  1.429818455346E-01
C12  3.523841709446E-01  4.323063721684E-01  3.529613433754E-01
C13  3.060138590823E-01 -4.706626182844E-01 -3.051820734206E-01
H14  1.115362663203E-01  2.662389608258E-01 -2.902006506405E-03
H15  3.443268980849E-01  3.877424854196E-01  1.889793978368E-01
C16  4.268942901384E-01  4.608364483225E-01  4.254063302538E-01
H17  2.594451112397E-01 -4.489411210348E-01 -1.996844305200E-01
C18  3.764212009238E-01 -4.409284760037E-01 -2.302313346554E-01
C19  4.879987220921E-01  4.309981524316E-01  2.931789117284E-01
C20  4.395415765641E-01 -4.693411082329E-01 -3.623892791859E-01
H21  3.852899101368E-01 -3.921019678249E-01 -6.840322478384E-02
H22  4.788955870031E-01  3.773607763126E-01  1.333241735192E-01
C23 -4.395415765641E-01  4.693411082329E-01  3.623892791859E-01
C24 -4.879987220921E-01 -4.309981524316E-01 -2.931789117284E-01
C25 -3.764212009238E-01  4.409284760037E-01  2.302313346554E-01
C26 -4.268942901384E-01 -4.608364483225E-01 -4.254063302538E-01
H27 -4.788955870031E-01 -3.773607763126E-01 -1.333241735192E-01
H28 -3.852899101368E-01  3.921019678249E-01  6.840322478384E-02
C29 -3.060138590823E-01  4.706626182844E-01  3.051820734206E-01
C30 -3.523841709446E-01 -4.323063721684E-01 -3.529613433754E-01
H31 -2.594451112397E-01  4.489411210348E-01  1.996844305200E-01
C32 -2.922474621506E-01 -4.705852302044E-01 -4.793849841896E-01
H33 -3.443268980849E-01 -3.877424854196E-01 -1.889793978368E-01
C34 -2.150034398432E-01 -4.618815632568E-01 -3.946630971569E-01
C35 -1.962312473671E-01 -3.545676140317E-01 -2.165438160596E-01
C36 -1.585391509685E-01  4.335126336085E-01 -4.873976658216E-01
H37 -2.380603569399E-01 -2.701609067103E-01 -1.429818455346E-01
C38 -1.241361279124E-01 -3.511035427870E-01 -1.343408144594E-01
H39 -1.707809193758E-01  3.447545643549E-01  3.785767944697E-01
C40 -8.642510454896E-02  4.370235763448E-01 -4.052734385726E-01
H41 -1.115362663203E-01 -2.662389608258E-01  2.902006506405E-03
C42 -6.875228534817E-02 -4.544621722429E-01 -2.297589830445E-01
H43 -4.403526085345E-02  3.532388690203E-01 -4.780277639664E-01
H44 -1.210679918173E-02 -4.505507820600E-01 -1.687330399546E-01
C45 -1.585988368906E-01  1.312758983656E-01 -5.335976309578E-06
H46 -1.718670101371E-01  2.095095477330E-01 -1.421033846617E-01
C47 -8.537520927179E-02  1.299646984422E-01  7.284450352196E-02
C48 -2.143065252672E-01  3.569641787894E-02  1.081011612907E-01
H49 -4.350665599622E-02  2.024280376685E-01 -1.694778626234E-02
C50 -6.560871408134E-02  3.501718892111E-02  2.577019794059E-01
C51 -1.935115280752E-01 -5.739341219927E-02  2.957193003496E-01
C52 -2.919970924315E-01  3.246379282875E-02  2.578546164468E-02
H53 -8.143705017282E-03  3.213627434290E-02  3.113066158257E-01
C54 -1.204629893023E-01 -5.712533114037E-02  3.704017530105E-01
H55 -2.344016796606E-01 -1.343905536172E-01  3.838524948264E-01
C56 -3.505027119782E-01 -2.087004025082E-02  1.511518060721E-01
C57 -3.083303378369E-01  8.856205146287E-02 -1.891836119613E-01
H58 -1.066774117667E-01 -1.319463562175E-01 -4.848262554876E-01
H59 -3.410722210696E-01 -6.467716305427E-02  3.145268724802E-01
C60 -4.256671930170E-01 -1.427965359154E-02  7.731223023194E-02
H61 -2.632936319999E-01  1.237127250188E-01 -2.951613502707E-01
C62 -3.795420724966E-01  9.809240433419E-02 -2.657568914605E-01
C63 -4.851524067550E-01 -6.387176615928E-02  2.076791472297E-01
C64 -4.411847521286E-01  5.021399321355E-02 -1.356815189289E-01
H65 -3.901342877372E-01  1.438601475725E-01 -4.279702603855E-01
H66 -4.739072082944E-01 -1.138541944638E-01  3.681311874127E-01
C67  4.411847521286E-01 -5.021399321355E-02  1.356815189289E-01
C68  4.851524067550E-01  6.387176615928E-02 -2.076791472297E-01
C69  3.795420724966E-01 -9.809240433419E-02  2.657568914605E-01
C70  4.256671930170E-01  1.427965359154E-02 -7.731223023194E-02
H71  4.739072082944E-01  1.138541944638E-01 -3.681311874127E-01
H72  3.901342877372E-01 -1.438601475725E-01  4.279702603855E-01
C73  3.083303378369E-01 -8.856205146287E-02  1.891836119613E-01
C74  3.505027119782E-01  2.087004025082E-02 -1.511518060721E-01
H75  2.632936319999E-01 -1.237127250188E-01  2.951613502707E-01
C76  2.919970924315E-01 -3.246379282875E-02 -2.578546164468E-02
H77  3.410722210696E-01  6.467716305427E-02 -3.145268724802E-01
C78  2.143065252672E-01 -3.569641787894E-02 -1.081011612907E-01
C79  1.935115280752E-01  5.739341219927E-02 -2.957193003496E-01
C80  1.585988368906E-01 -1.312758983656E-01  5.335976309578E-06
H81  2.344016796606E-01  1.343905536172E-01 -3.838524948264E-01
C82  1.204629893023E-01  5.712533114037E-02 -3.704017530105E-01
H83  1.718670101371E-01 -2.095095477330E-01  1.421033846617E-01
C84  8.537520927179E-02 -1.299646984422E-01 -7.284450352196E-02
H85  1.066774117667E-01  1.319463562175E-01  4.848262554876E-01
C86  6.560871408134E-02 -3.501718892111E-02 -2.577019794059E-01
H87  4.350665599622E-02 -2.024280376685E-01  1.694778626234E-02
H88  8.143705017282E-03 -3.213627434290E-02 -3.113066158257E-01


#===END
