###############################################################################
#
#                    CRYSTAL17 CIF FILE
#
###############################################################################

data_OPT_STEP_0

_symmetry_space_group_name_H-M 'P 1'
_cell_length_a     17.97300000
_cell_length_b      7.35200000
_cell_length_c      6.24500000
_cell_angle_alpha   90.000000
_cell_angle_beta   90.646004
_cell_angle_gamma   90.000000

loop_
_atom_site_label
_atom_site_fract_x
_atom_site_fract_y
_atom_site_fract_z
C1  1.582298433817E-01 -3.970402466145E-01  4.968059451751E-01
H2  1.708129248015E-01 -3.100150166155E-01 -3.679044974231E-01
C3  8.572155126522E-02 -4.017411778663E-01  4.178591180586E-01
C4  2.144924931021E-01 -4.997408992689E-01  4.010138512130E-01
H5  4.333211484287E-02 -3.214072350710E-01  4.950773786120E-01
C6  6.735848895212E-02  4.913898102254E-01  2.413258449691E-01
C7  1.949803679930E-01  3.936357427756E-01  2.226734435412E-01
C8  2.920775164070E-01 -4.942404430344E-01  4.833222182877E-01
H9  1.044001103463E-02  4.868075313940E-01  1.827520762922E-01
C10  1.226018848653E-01  3.896723824493E-01  1.428639165631E-01
H11  2.364808823868E-01  3.097645167495E-01  1.467154824076E-01
C12  3.508824127972E-01  4.603255168313E-01  3.552974693111E-01
C13  3.079236945478E-01 -4.359889140394E-01 -3.022346445894E-01
H14  1.096304241773E-01  3.050925465336E-01  5.271279472484E-03
H15  3.414004297354E-01  4.167996045985E-01  1.916714957031E-01
C16  4.259842831663E-01  4.763094572379E-01  4.261093289703E-01
H17  2.624530004015E-01 -4.068600829844E-01 -1.954280052428E-01
C18  3.791216110223E-01 -4.170959706338E-01 -2.288226941526E-01
C19  4.855564157003E-01  4.342944967877E-01  2.929559353875E-01
C20  4.409680049062E-01 -4.571751114158E-01 -3.615138812000E-01
H21  3.896002360420E-01 -3.696975502508E-01 -6.720416084543E-02
H22  4.744150146883E-01  3.829766472605E-01  1.330675099582E-01
C23 -4.409680049062E-01  4.571751114158E-01  3.615138812000E-01
C24 -4.855564157003E-01 -4.342944967877E-01 -2.929559353875E-01
C25 -3.791216110223E-01  4.170959706338E-01  2.288226941526E-01
C26 -4.259842831663E-01 -4.763094572379E-01 -4.261093289703E-01
H27 -4.744150146883E-01 -3.829766472605E-01 -1.330675099582E-01
H28 -3.896002360420E-01  3.696975502508E-01  6.720416084543E-02
C29 -3.079236945478E-01  4.359889140394E-01  3.022346445894E-01
C30 -3.508824127972E-01 -4.603255168313E-01 -3.552974693111E-01
H31 -2.624530004015E-01  4.068600829844E-01  1.954280052428E-01
C32 -2.920775164070E-01  4.942404430344E-01 -4.833222182877E-01
H33 -3.414004297354E-01 -4.167996045985E-01 -1.916714957031E-01
C34 -2.144924931021E-01  4.997408992689E-01 -4.010138512130E-01
C35 -1.949803679930E-01 -3.936357427756E-01 -2.226734435412E-01
C36 -1.582298433817E-01  3.970402466145E-01 -4.968059451751E-01
H37 -2.364808823868E-01 -3.097645167495E-01 -1.467154824076E-01
C38 -1.226018848653E-01 -3.896723824493E-01 -1.428639165631E-01
H39 -1.708129248015E-01  3.100150166155E-01  3.679044974231E-01
C40 -8.572155126522E-02  4.017411778663E-01 -4.178591180586E-01
H41 -1.096304241773E-01 -3.050925465336E-01 -5.271279472484E-03
C42 -6.735848895212E-02 -4.913898102254E-01 -2.413258449691E-01
H43 -4.333211484287E-02  3.214072350710E-01 -4.950773786120E-01
H44 -1.044001103463E-02 -4.868075313940E-01 -1.827520762922E-01
C45 -1.589081444775E-01  9.480351137160E-02  9.402943377144E-03
H46 -1.718350047114E-01  1.747699999936E-01 -1.314310876151E-01
C47 -8.607876255553E-02  9.468229996368E-02  8.543018300797E-02
C48 -2.148174720084E-01 -2.681119595348E-03  1.144519153468E-01
H49 -4.420980200686E-02  1.705964037193E-01  1.018283832801E-04
C50 -6.700251047739E-02 -1.910449061344E-03  2.692688413306E-01
C51 -1.947624074493E-01 -9.646154094314E-02  3.018489278313E-01
C52 -2.921670381750E-01 -2.710533932399E-03  2.972269574284E-02
H53 -9.810493164382E-03 -4.120474991159E-03  3.253256521633E-01
C54 -1.219972323494E-01 -9.569417080264E-02  3.789248551142E-01
H55 -2.359811542137E-01 -1.739941636564E-01  3.875861316995E-01
C56 -3.520044701257E-01 -4.888918491376E-02  1.534879320079E-01
C57 -3.064205023713E-01  5.388834721790E-02 -1.862361831302E-01
H58 -1.085832539097E-01 -1.707999419253E-01 -4.766529695087E-01
H59 -3.439986894190E-01 -9.373428223313E-02  3.172189703465E-01
C60 -4.265771999891E-01 -2.975266250694E-02  7.801522894837E-02
H61 -2.602857428381E-01  8.163168696831E-02 -2.909049249935E-01
C62 -3.768416623981E-01  7.425989896436E-02 -2.643482509577E-01
C63 -4.875947131469E-01 -6.716811051537E-02  2.074561708888E-01
C64 -4.397583237865E-01  3.804799639649E-02 -1.348061209430E-01
H65 -3.858239618320E-01  1.214557299984E-01 -4.267711964471E-01
H66 -4.783877806092E-01 -1.194700654117E-01  3.678745238516E-01
C67  4.397583237865E-01 -3.804799639649E-02  1.348061209430E-01
C68  4.875947131469E-01  6.716811051537E-02 -2.074561708888E-01
C69  3.768416623981E-01 -7.425989896436E-02  2.643482509577E-01
C70  4.265771999891E-01  2.975266250694E-02 -7.801522894837E-02
H71  4.783877806092E-01  1.194700654117E-01 -3.678745238516E-01
H72  3.858239618320E-01 -1.214557299984E-01  4.267711964471E-01
C73  3.064205023713E-01 -5.388834721790E-02  1.862361831302E-01
C74  3.520044701257E-01  4.888918491376E-02 -1.534879320079E-01
H75  2.602857428381E-01 -8.163168696831E-02  2.909049249935E-01
C76  2.921670381750E-01  2.710533932399E-03 -2.972269574284E-02
H77  3.439986894190E-01  9.373428223313E-02 -3.172189703465E-01
C78  2.148174720084E-01  2.681119595348E-03 -1.144519153468E-01
C79  1.947624074493E-01  9.646154094314E-02 -3.018489278313E-01
C80  1.589081444775E-01 -9.480351137160E-02 -9.402943377144E-03
H81  2.359811542137E-01  1.739941636564E-01 -3.875861316995E-01
C82  1.219972323494E-01  9.569417080264E-02 -3.789248551142E-01
H83  1.718350047114E-01 -1.747699999936E-01  1.314310876151E-01
C84  8.607876255553E-02 -9.468229996368E-02 -8.543018300797E-02
H85  1.085832539097E-01  1.707999419253E-01  4.766529695087E-01
C86  6.700251047739E-02  1.910449061344E-03 -2.692688413306E-01
H87  4.420980200686E-02 -1.705964037193E-01 -1.018283832801E-04
H88  9.810493164382E-03  4.120474991159E-03 -3.253256521633E-01


#===END
