###############################################################################
#
#                    CRYSTAL17 CIF FILE
#
###############################################################################

data_OPT_STEP_0

_symmetry_space_group_name_H-M 'P 1'
_cell_length_a     17.97300000
_cell_length_b      7.35200000
_cell_length_c      6.24500000
_cell_angle_alpha   90.000000
_cell_angle_beta   90.646004
_cell_angle_gamma   90.000000

loop_
_atom_site_label
_atom_site_fract_x
_atom_site_fract_y
_atom_site_fract_z
C1  1.606983711473E-01 -4.022261692882E-01  4.950393008259E-01
H2  1.741650646443E-01 -3.188620509029E-01 -3.674341673943E-01
C3  8.791344401667E-02 -4.032354657017E-01  4.192975201570E-01
C4  2.160200036914E-01  4.969631437941E-01  3.927676508622E-01
H5  4.616682023090E-02 -3.246483753564E-01 -4.983746502784E-01
C6  6.869668463542E-02  4.961823544929E-01  2.386633906894E-01
C7  1.958708100115E-01  3.966912128694E-01  2.105311450783E-01
C8  2.931789006391E-01 -4.991554725399E-01  4.750557626703E-01
H9  1.156214318535E-02  4.945981832684E-01  1.816296774372E-01
C10  1.231675538409E-01  3.971355020098E-01  1.333129843867E-01
H11  2.369183047248E-01  3.152651224705E-01  1.293632057558E-01
C12  3.523062125917E-01  4.576963239414E-01  3.478731268458E-01
C13  3.076042782796E-01 -4.417295923924E-01 -3.096787661692E-01
H14  1.092704477594E-01  3.180543637780E-01 -7.797767723713E-03
H15  3.435981790817E-01  4.144804601521E-01  1.838547525462E-01
C16  4.267343007765E-01  4.753930387029E-01  4.221886729736E-01
H17  2.615620982401E-01 -4.155609137180E-01 -2.040744294173E-01
C18  3.781397266019E-01 -4.192876896046E-01 -2.339734184749E-01
C19  4.869251513750E-01  4.336203175348E-01  2.922230398160E-01
C20  4.403447905197E-01 -4.575010369071E-01 -3.649962210778E-01
H21  3.878316485131E-01 -3.716559272526E-01 -7.209516482857E-02
H22  4.769280513031E-01  3.819308335881E-01  1.319723535049E-01
C23 -4.403447905197E-01  4.575010369071E-01  3.649962210778E-01
C24 -4.869251513750E-01 -4.336203175348E-01 -2.922230398160E-01
C25 -3.781397266019E-01  4.192876896046E-01  2.339734184749E-01
C26 -4.267343007765E-01 -4.753930387029E-01 -4.221886729736E-01
H27 -4.769280513031E-01 -3.819308335881E-01 -1.319723535049E-01
H28 -3.878316485131E-01  3.716559272526E-01  7.209516482857E-02
C29 -3.076042782796E-01  4.417295923924E-01  3.096787661692E-01
C30 -3.523062125917E-01 -4.576963239414E-01 -3.478731268458E-01
H31 -2.615620982401E-01  4.155609137180E-01  2.040744294173E-01
C32 -2.931789006391E-01  4.991554725399E-01 -4.750557626703E-01
H33 -3.435981790817E-01 -4.144804601521E-01 -1.838547525462E-01
C34 -2.160200036914E-01 -4.969631437941E-01 -3.927676508622E-01
C35 -1.958708100115E-01 -3.966912128694E-01 -2.105311450783E-01
C36 -1.606983711473E-01  4.022261692882E-01 -4.950393008259E-01
H37 -2.369183047248E-01 -3.152651224705E-01 -1.293632057558E-01
C38 -1.231675538409E-01 -3.971355020098E-01 -1.333129843867E-01
H39 -1.741650646443E-01  3.188620509029E-01  3.674341673943E-01
C40 -8.791344401667E-02  4.032354657017E-01 -4.192975201570E-01
H41 -1.092704477594E-01 -3.180543637780E-01  7.797767723712E-03
C42 -6.869668463542E-02 -4.961823544929E-01 -2.386633906894E-01
H43 -4.616682023090E-02  3.246483753564E-01  4.983746502784E-01
H44 -1.156214318535E-02 -4.945981832684E-01 -1.816296774372E-01
C45 -1.564396167118E-01  9.998943404529E-02  7.636299027939E-03
H46 -1.684828648686E-01  1.836170342810E-01 -1.309607575863E-01
C47 -8.388686980408E-02  9.617658779910E-02  8.686858510643E-02
C48 -2.132899614189E-01  6.148373416758E-04  1.062057149960E-01
H49 -4.137509661883E-02  1.738375440046E-01  6.649799492881E-03
C50 -6.566431479409E-02 -6.702993328890E-03  2.666063870508E-01
C51 -1.938719654308E-01 -9.951701103700E-02  2.897066293683E-01
C52 -2.910656539430E-01  2.204495573041E-03  2.145624012542E-02
H53 -8.688361013665E-03 -1.191112686548E-02  3.242032533084E-01
C54 -1.214315633737E-01 -1.031572903632E-01  3.693739229378E-01
H55 -2.355437318757E-01 -1.794947693774E-01  3.702338550476E-01
C56 -3.505806703312E-01 -4.625999202380E-02  1.460635895426E-01
C57 -3.067399186395E-01  5.962902557087E-02 -1.936803047100E-01
H58 -1.089432303277E-01 -1.837617591697E-01 -4.897220167049E-01
H59 -3.418009400727E-01 -9.141513778672E-02  3.094022271896E-01
C60 -4.258271823789E-01 -2.883624397198E-02  7.409457295166E-02
H61 -2.611766449995E-01  9.033251770199E-02 -2.995513491680E-01
C62 -3.778235468185E-01  7.645161793512E-02 -2.694989752800E-01
C63 -4.862259774721E-01 -6.649393126251E-02  2.067232753173E-01
C64 -4.403815381729E-01  3.837392188779E-02 -1.382884608208E-01
H65 -3.875925493608E-01  1.234141070001E-01 -4.316622004302E-01
H66 -4.758747439945E-01 -1.184242517394E-01  3.667793673984E-01
C67  4.403815381729E-01 -3.837392188779E-02  1.382884608208E-01
C68  4.862259774721E-01  6.649393126251E-02 -2.067232753173E-01
C69  3.778235468185E-01 -7.645161793512E-02  2.694989752800E-01
C70  4.258271823789E-01  2.883624397198E-02 -7.409457295166E-02
H71  4.758747439945E-01  1.184242517394E-01 -3.667793673984E-01
H72  3.875925493608E-01 -1.234141070001E-01  4.316622004302E-01
C73  3.067399186395E-01 -5.962902557087E-02  1.936803047100E-01
C74  3.505806703312E-01  4.625999202380E-02 -1.460635895426E-01
H75  2.611766449995E-01 -9.033251770199E-02  2.995513491680E-01
C76  2.910656539430E-01 -2.204495573041E-03 -2.145624012542E-02
H77  3.418009400727E-01  9.141513778672E-02 -3.094022271896E-01
C78  2.132899614189E-01 -6.148373416758E-04 -1.062057149960E-01
C79  1.938719654308E-01  9.951701103700E-02 -2.897066293683E-01
C80  1.564396167118E-01 -9.998943404529E-02 -7.636299027939E-03
H81  2.355437318757E-01  1.794947693774E-01 -3.702338550476E-01
C82  1.214315633737E-01  1.031572903632E-01 -3.693739229378E-01
H83  1.684828648686E-01 -1.836170342810E-01  1.309607575863E-01
C84  8.388686980408E-02 -9.617658779910E-02 -8.686858510643E-02
H85  1.089432303277E-01  1.837617591697E-01  4.897220167049E-01
C86  6.566431479409E-02  6.702993328890E-03 -2.666063870508E-01
H87  4.137509661883E-02 -1.738375440046E-01 -6.649799492881E-03
H88  8.688361013665E-03  1.191112686548E-02 -3.242032533084E-01


#===END
