###############################################################################
#
#                    CRYSTAL17 CIF FILE
#
###############################################################################

data_OPT_STEP_0

_symmetry_space_group_name_H-M 'P 1'
_cell_length_a     17.97300000
_cell_length_b      7.35200000
_cell_length_c      6.24500000
_cell_angle_alpha   90.000000
_cell_angle_beta   90.646004
_cell_angle_gamma   90.000000

loop_
_atom_site_label
_atom_site_fract_x
_atom_site_fract_y
_atom_site_fract_z
C1  1.607099523976E-01 -4.000421243677E-01  4.936344350713E-01
H2  1.740307853919E-01 -3.158139290880E-01 -3.693974574364E-01
C3  8.761874902468E-02 -4.046140758443E-01  4.202133895273E-01
C4  2.163024293075E-01 -4.997613210558E-01  3.911607584063E-01
H5  4.571130539702E-02 -3.269109761330E-01 -4.969419518276E-01
C6  6.833281789054E-02  4.921754440041E-01  2.416012601171E-01
C7  1.963311217882E-01  4.004191484187E-01  2.084635225339E-01
C8  2.932750266405E-01 -4.981908688317E-01  4.751180678182E-01
H9  1.097581189851E-02  4.869980378679E-01  1.867354050692E-01
C10  1.233069514265E-01  3.965638728466E-01  1.341202588679E-01
H11  2.376485035204E-01  3.211205114744E-01  1.254807727216E-01
C12  3.524098644586E-01  4.545675163116E-01  3.498979158465E-01
C13  3.075766217777E-01 -4.412681939599E-01 -3.094364597150E-01
H14  1.095572976529E-01  3.165725255982E-01 -6.302398441355E-03
H15  3.438214797875E-01  4.100825237788E-01  1.863367749353E-01
C16  4.268255343468E-01  4.721591903862E-01  4.240676483128E-01
H17  2.614800001431E-01 -4.133327034735E-01 -2.045973590885E-01
C18  3.781275960700E-01 -4.215857042244E-01 -2.326351934527E-01
C19  4.869010669772E-01  4.322971558252E-01  2.927502002410E-01
C20  4.403605609888E-01 -4.596113844899E-01 -3.636086652145E-01
H21  3.878146675573E-01 -3.743290771385E-01 -7.056789795464E-02
H22  4.767616401828E-01  3.799611749732E-01  1.328409530028E-01
C23 -4.403605609888E-01  4.596113844899E-01  3.636086652145E-01
C24 -4.869010669772E-01 -4.322971558252E-01 -2.927502002410E-01
C25 -3.781275960700E-01  4.215857042244E-01  2.326351934527E-01
C26 -4.268255343468E-01 -4.721591903862E-01 -4.240676483128E-01
H27 -4.767616401828E-01 -3.799611749732E-01 -1.328409530028E-01
H28 -3.878146675573E-01  3.743290771385E-01  7.056789795464E-02
C29 -3.075766217777E-01  4.412681939599E-01  3.094364597150E-01
C30 -3.524098644586E-01 -4.545675163116E-01 -3.498979158465E-01
H31 -2.614800001431E-01  4.133327034735E-01  2.045973590885E-01
C32 -2.932750266405E-01  4.981908688317E-01 -4.751180678182E-01
H33 -3.438214797875E-01 -4.100825237788E-01 -1.863367749353E-01
C34 -2.163024293075E-01  4.997613210558E-01 -3.911607584063E-01
C35 -1.963311217882E-01 -4.004191484187E-01 -2.084635225339E-01
C36 -1.607099523976E-01  4.000421243677E-01 -4.936344350713E-01
H37 -2.376485035204E-01 -3.211205114744E-01 -1.254807727216E-01
C38 -1.233069514265E-01 -3.965638728466E-01 -1.341202588679E-01
H39 -1.740307853919E-01  3.158139290880E-01  3.693974574364E-01
C40 -8.761874902468E-02  4.046140758443E-01 -4.202133895273E-01
H41 -1.095572976529E-01 -3.165725255982E-01  6.302398441354E-03
C42 -6.833281789054E-02 -4.921754440041E-01 -2.416012601171E-01
H43 -4.571130539702E-02  3.269109761330E-01  4.969419518276E-01
H44 -1.097581189851E-02 -4.869980378679E-01 -1.867354050692E-01
C45 -1.607099523976E-01  9.995787563234E-02  6.365564927855E-03
H46 -1.740307853919E-01  1.841860709120E-01 -1.306025425644E-01
C47 -8.761874902468E-02  9.538592415574E-02  7.978661047185E-02
C48 -2.163024293075E-01  2.386789442328E-04  1.088392415929E-01
H49 -4.571130539703E-02  1.730890238670E-01 -3.058048173165E-03
C50 -6.833281789055E-02 -7.824555995920E-03  2.583987398821E-01
C51 -1.963311217882E-01 -9.958085158134E-02  2.915364774653E-01
C52 -2.932750266405E-01  1.809131168253E-03  2.488193218104E-02
H53 -1.097581189852E-02 -1.300196213207E-02  3.132645949300E-01
C54 -1.233069514265E-01 -1.034361271534E-01  3.658797411313E-01
H55 -2.376485035204E-01 -1.788794885256E-01  3.745192272776E-01
C56 -3.524098644586E-01 -4.543248368838E-02  1.501020841527E-01
C57 -3.075766217777E-01  5.873180604012E-02 -1.905635402858E-01
H58 -1.095572976529E-01 -1.834274744018E-01 -4.936976015594E-01
H59 -3.438214797875E-01 -8.991747622116E-02  3.136632250639E-01
C60 -4.268255343468E-01 -2.784080961385E-02  7.593235168644E-02
H61 -2.614800001431E-01  8.666729652652E-02 -2.954026409123E-01
C62 -3.781275960700E-01  7.841429577557E-02 -2.673648065481E-01
C63 -4.869010669772E-01 -6.770284417478E-02  2.072497997582E-01
C64 -4.403605609888E-01  4.038861551007E-02 -1.363913347863E-01
H65 -3.878146675573E-01  1.256709228615E-01 -4.294321020462E-01
H66 -4.767616401828E-01 -1.200388250268E-01  3.671590469964E-01
C67  4.403605609888E-01 -4.038861551007E-02  1.363913347847E-01
C68  4.869010669772E-01  6.770284417478E-02 -2.072497997598E-01
C69  3.781275960700E-01 -7.841429577557E-02  2.673648065465E-01
C70  4.268255343468E-01  2.784080961385E-02 -7.593235168804E-02
H71  4.767616401828E-01  1.200388250268E-01 -3.671590469980E-01
H72  3.878146675573E-01 -1.256709228615E-01  4.294321020446E-01
C73  3.075766217777E-01 -5.873180604013E-02  1.905635402842E-01
C74  3.524098644586E-01  4.543248368838E-02 -1.501020841543E-01
H75  2.614800001431E-01 -8.666729652652E-02  2.954026409107E-01
C76  2.932750266405E-01 -1.809131168254E-03 -2.488193218264E-02
H77  3.438214797875E-01  8.991747622116E-02 -3.136632250655E-01
C78  2.163024293075E-01 -2.386789442330E-04 -1.088392415945E-01
C79  1.963311217882E-01  9.958085158134E-02 -2.915364774669E-01
C80  1.607099523976E-01 -9.995787563235E-02 -6.365564929457E-03
H81  2.376485035204E-01  1.788794885256E-01 -3.745192272792E-01
C82  1.233069514265E-01  1.034361271534E-01 -3.658797411329E-01
H83  1.740307853919E-01 -1.841860709120E-01  1.306025425628E-01
C84  8.761874902468E-02 -9.538592415574E-02 -7.978661047346E-02
H85  1.095572976529E-01  1.834274744018E-01  4.936976015578E-01
C86  6.833281789054E-02  7.824555995919E-03 -2.583987398837E-01
H87  4.571130539702E-02 -1.730890238670E-01  3.058048171563E-03
H88  1.097581189851E-02  1.300196213207E-02 -3.132645949316E-01


#===END
