###############################################################################
#
#                    CRYSTAL17 CIF FILE
#
###############################################################################

data_OPT_STEP_0

_symmetry_space_group_name_H-M 'P 1'
_cell_length_a     17.97300000
_cell_length_b      7.35200000
_cell_length_c      6.24500000
_cell_angle_alpha   90.000000
_cell_angle_beta   90.646004
_cell_angle_gamma   90.000000

loop_
_atom_site_label
_atom_site_fract_x
_atom_site_fract_y
_atom_site_fract_z
C1  1.579304373734E-01 -4.077360123141E-01  4.943166609645E-01
H2  1.701632728367E-01 -3.241188994723E-01 -3.672329054622E-01
C3  8.528421886748E-02 -4.122502418876E-01  4.165973429193E-01
C4  2.146375034422E-01  4.945523879845E-01  3.933987819987E-01
H5  4.274629031958E-02 -3.352925715200E-01  4.977912155435E-01
C6  6.718821151009E-02  4.859114250726E-01  2.359247833018E-01
C7  1.954411213110E-01  3.943604650318E-01  2.100650615397E-01
C8  2.921239919409E-01  4.991753472505E-01  4.768218382114E-01
H9  1.017955381143E-02  4.810000849192E-01  1.783032633349E-01
C10  1.228808682157E-01  3.903190358462E-01  1.316627555034E-01
H11  2.372729520015E-01  3.155764995577E-01  1.287124308804E-01
C12  3.515210628158E-01  4.535180063753E-01  3.511096014117E-01
C13  3.071431409307E-01 -4.423229924660E-01 -3.083358849260E-01
H14  1.101646820083E-01  3.104802826308E-01 -9.558118279123E-03
H15  3.428789528746E-01  4.086853732960E-01  1.876225556041E-01
C16  4.263249408131E-01  4.717727868425E-01  4.241814582177E-01
H17  2.613389947621E-01 -4.135393845272E-01 -2.026976986432E-01
C18  3.779462770748E-01 -4.222219707930E-01 -2.325728085805E-01
C19  4.866079168295E-01  4.322610452995E-01  2.928013978929E-01
C20  4.403814750784E-01 -4.607447852779E-01 -3.633672010033E-01
H21  3.876047992820E-01 -3.743137506027E-01 -7.074642756957E-02
H22  4.764306924358E-01  3.805227625579E-01  1.326242106591E-01
C23 -4.403448536142E-01  4.583823297414E-01  3.633405592545E-01
C24 -4.865432120177E-01 -4.348653409728E-01 -2.926983666050E-01
C25 -3.780169963456E-01  4.206141008765E-01  2.319016346153E-01
C26 -4.262365423423E-01 -4.747840078885E-01 -4.239126418034E-01
H27 -4.763721028618E-01 -3.829838192908E-01 -1.325687754466E-01
H28 -3.878193985919E-01  3.739280696498E-01  6.968653682959E-02
C29 -3.072010559886E-01  4.397775743555E-01  3.076625765340E-01
C30 -3.513658201070E-01 -4.579183255423E-01 -3.506999358908E-01
H31 -2.613997484775E-01  4.116890114888E-01  2.018253816069E-01
C32 -2.921205626411E-01  4.961263242174E-01 -4.767776843327E-01
H33 -3.425201662798E-01 -4.143799490694E-01 -1.868299697518E-01
C34 -2.146724616681E-01  4.969744068487E-01 -3.931631538668E-01
C35 -1.943016541314E-01 -4.028137368006E-01 -2.107594541695E-01
C36 -1.592075504856E-01  3.945007229289E-01 -4.930863408327E-01
H37 -2.351890845990E-01 -3.201938535354E-01 -1.304169198269E-01
C38 -1.217182489990E-01 -4.036591758005E-01 -1.322763059447E-01
H39 -1.724846566761E-01  3.111261171496E-01  3.692405043466E-01
C40 -8.651609495331E-02  3.948086360150E-01 -4.158315921305E-01
H41 -1.080489960788E-01 -3.238123219774E-01  8.517632740524E-03
C42 -6.717278791945E-02  4.964320639086E-01 -2.361322203359E-01
H43 -4.479562653008E-02  3.155182598317E-01 -4.971843346845E-01
H44 -1.007095038757E-02  4.983130285163E-01 -1.791231607931E-01
C45 -1.592075504856E-01  1.054992770711E-01  6.913659166541E-03
H46 -1.724846566761E-01  1.888738828504E-01 -1.307594956542E-01
C47 -8.651609495331E-02  1.051913639850E-01  8.416840786868E-02
C48 -2.146724616681E-01  3.025593151252E-03  1.068368461324E-01
H49 -4.479562653008E-02  1.844817401683E-01  2.815665314712E-03
C50 -6.717278791946E-02  3.567936091404E-03  2.638677796633E-01
C51 -1.943016541314E-01 -9.718626319940E-02  2.892405458297E-01
C52 -2.921205626411E-01  3.873675782644E-03  2.322231566650E-02
H53 -1.007095038757E-02  1.686971483678E-03  3.208768392061E-01
C54 -1.217182489990E-01 -9.634082419954E-02  3.677236940545E-01
H55 -2.351890845990E-01 -1.798061464646E-01  3.695830801723E-01
C56 -3.513658201070E-01 -4.208167445770E-02  1.493000641084E-01
C57 -3.072010559886E-01  6.022242564445E-02 -1.923374234668E-01
H58 -1.080489960788E-01 -1.761876780226E-01 -4.914823672603E-01
H59 -3.425201662798E-01 -8.562005093063E-02  3.131700302474E-01
C60 -4.262365423423E-01 -2.521599211153E-02  7.608735819581E-02
H61 -2.613997484775E-01  8.831098851115E-02 -2.981746183939E-01
C62 -3.780169963456E-01  7.938589912350E-02 -2.680983653855E-01
C63 -4.865432120177E-01 -6.513465902720E-02  2.073016333942E-01
C64 -4.403448536142E-01  4.161767025857E-02 -1.366594407463E-01
H65 -3.878193985920E-01  1.260719303502E-01 -4.303134631712E-01
H66 -4.763721028618E-01 -1.170161807092E-01  3.674312245526E-01
C67  4.403814750784E-01 -3.925521472212E-02  1.366327989959E-01
C68  4.866079168295E-01  6.773895470049E-02 -2.071986021079E-01
C69  3.779462770748E-01 -7.777802920702E-02  2.674271914187E-01
C70  4.263249408131E-01  2.822721315751E-02 -7.581854178308E-02
H71  4.764306924358E-01  1.194772374421E-01 -3.673757893417E-01
H72  3.876047992820E-01 -1.256862493973E-01  4.292535724296E-01
C73  3.071431409306E-01 -5.767700753400E-02  1.916641150732E-01
C74  3.515210628158E-01  4.648199362473E-02 -1.488903985891E-01
H75  2.613389947621E-01 -8.646061547280E-02  2.973023013560E-01
C76  2.921239919409E-01  8.246527494558E-04 -2.317816178942E-02
H77  3.428789528746E-01  9.131462670403E-02 -3.123774443967E-01
C78  2.146375034422E-01  5.447612015506E-03 -1.066012180021E-01
C79  1.954411213110E-01  1.056395349682E-01 -2.899349384611E-01
C80  1.579304373734E-01 -9.226398768594E-02 -5.683339036330E-03
H81  2.372729520015E-01  1.844235004423E-01 -3.712875691204E-01
C82  1.228808682157E-01  1.096809641538E-01 -3.683372444974E-01
H83  1.701632728367E-01 -1.758811005277E-01  1.327670945370E-01
C84  8.528421886747E-02 -8.774975811235E-02 -8.340265708152E-02
H85  1.101646820083E-01  1.895197173692E-01  4.904418817201E-01
C86  6.718821151009E-02  1.408857492737E-02 -2.640752166990E-01
H87  4.274629031957E-02 -1.647074284800E-01 -2.208784457346E-03
H88  1.017955381142E-02  1.899991508079E-02 -3.216967366659E-01


#===END
