###############################################################################
#
#                    CRYSTAL17 CIF FILE
#
###############################################################################

data_OPT_STEP_0

_symmetry_space_group_name_H-M 'P 1'
_cell_length_a     17.97300000
_cell_length_b      7.35200000
_cell_length_c      6.24500000
_cell_angle_alpha   90.000000
_cell_angle_beta   90.646004
_cell_angle_gamma   90.000000

loop_
_atom_site_label
_atom_site_fract_x
_atom_site_fract_y
_atom_site_fract_z
C1  1.578190062725E-01 -4.073273819614E-01  4.995773052133E-01
H2  1.695598813735E-01 -3.269705145399E-01 -3.590055626596E-01
C3  8.545636243880E-02 -4.102580545993E-01  4.197989646005E-01
C4  2.149208451711E-01  4.981303984378E-01  3.965161833393E-01
H5  4.258705762342E-02 -3.356162256492E-01 -4.975682921846E-01
C6  6.806803757481E-02  4.927668997053E-01  2.348053423456E-01
C7  1.963925343401E-01  4.022093534427E-01  2.091865267562E-01
C8  2.922764173520E-01 -4.974709069585E-01  4.805319252522E-01
H9  1.127172691621E-02  4.893759011043E-01  1.752559119553E-01
C10  1.241450516965E-01  4.000732928936E-01  1.284849835079E-01
H11  2.384410568968E-01  3.254383239840E-01  1.258618217735E-01
C12  3.513841285622E-01  4.564515958806E-01  3.541065424588E-01
C13  3.076785926066E-01 -4.387001333965E-01 -3.049353848567E-01
H14  1.119597873325E-01  3.240383817269E-01 -1.621678228004E-02
H15  3.424873258361E-01  4.115584248958E-01  1.908098985154E-01
C16  4.262459335063E-01  4.739848390396E-01  4.258369212250E-01
H17  2.621276572934E-01 -4.091609745473E-01 -1.987433806294E-01
C18  3.786470677642E-01 -4.190122089524E-01 -2.303254283873E-01
C19  4.860216780800E-01  4.329762520258E-01  2.931952306100E-01
C20  4.407457266162E-01 -4.582525176215E-01 -3.621240318674E-01
H21  3.887119904334E-01 -3.710113834854E-01 -6.874519430374E-02
H22  4.752180537428E-01  3.808179839611E-01  1.335077570403E-01
C23 -4.407457266162E-01  4.582525176215E-01  3.621240318674E-01
C24 -4.860216780800E-01 -4.329762520258E-01 -2.931952306100E-01
C25 -3.786470677642E-01  4.190122089524E-01  2.303254283873E-01
C26 -4.262459335063E-01 -4.739848390396E-01 -4.258369212250E-01
H27 -4.752180537428E-01 -3.808179839611E-01 -1.335077570403E-01
H28 -3.887119904334E-01  3.710113834854E-01  6.874519430374E-02
C29 -3.076785926066E-01  4.387001333965E-01  3.049353848567E-01
C30 -3.513841285622E-01 -4.564515958806E-01 -3.541065424588E-01
H31 -2.621276572934E-01  4.091609745473E-01  1.987433806294E-01
C32 -2.922764173520E-01  4.974709069585E-01 -4.805319252522E-01
H33 -3.424873258361E-01 -4.115584248958E-01 -1.908098985154E-01
C34 -2.149208451711E-01 -4.981303984378E-01 -3.965161833393E-01
C35 -1.963925343401E-01 -4.022093534427E-01 -2.091865267562E-01
C36 -1.578190062725E-01  4.073273819614E-01 -4.995773052133E-01
H37 -2.384410568968E-01 -3.254383239839E-01 -1.258618217735E-01
C38 -1.241450516965E-01 -4.000732928936E-01 -1.284849835079E-01
H39 -1.695598813735E-01  3.269705145399E-01  3.590055626596E-01
C40 -8.545636243880E-02  4.102580545993E-01 -4.197989646005E-01
H41 -1.119597873325E-01 -3.240383817269E-01  1.621678228004E-02
C42 -6.806803757481E-02 -4.927668997053E-01 -2.348053423456E-01
H43 -4.258705762342E-02  3.356162256492E-01  4.975682921846E-01
H44 -1.127172691621E-02 -4.893759011043E-01 -1.752559119553E-01
C45 -1.593189815865E-01  1.050906467184E-01  1.217430341540E-02
H46 -1.730880481393E-01  1.917254979180E-01 -1.225321528516E-01
C47 -8.634395138195E-02  1.031991766967E-01  8.737002954990E-02
C48 -2.143891199393E-01 -5.524173020946E-04  1.099542474730E-01
H49 -4.495485922631E-02  1.848053942975E-01  7.456157586620E-03
C50 -6.629296185470E-02 -3.287538541213E-03  2.627483387070E-01
C51 -1.933502411022E-01 -1.050351516103E-01  2.883620110462E-01
C52 -2.919681372300E-01  5.199299917030E-04  2.693240270727E-02
H53 -8.978777282803E-03 -6.688844701442E-03  3.178294878265E-01
C54 -1.204540655181E-01 -1.060950812470E-01  3.645459220589E-01
H55 -2.340209797037E-01 -1.896679708909E-01  3.667324710653E-01
C56 -3.515027543606E-01 -4.501526396300E-02  1.522970051556E-01
C57 -3.066656043126E-01  5.659956657495E-02 -1.889369233975E-01
H58 -1.062538907545E-01 -1.897457771186E-01 -4.981410312612E-01
H59 -3.429117933184E-01 -8.849310253047E-02  3.163573731588E-01
C60 -4.263155496491E-01 -2.742804430862E-02  7.774282120312E-02
H61 -2.606110859462E-01  8.393257853128E-02 -2.942203003801E-01
C62 -3.773162056562E-01  7.617613728292E-02 -2.658509851924E-01
C63 -4.871294507672E-01 -6.584986575354E-02  2.076954661113E-01
C64 -4.399806020764E-01  3.912540260215E-02 -1.354162716105E-01
H65 -3.867122074405E-01  1.227695632330E-01 -4.283122299054E-01
H66 -4.775847415548E-01 -1.173114021124E-01  3.683147709338E-01
C67  4.399806020764E-01 -3.912540260215E-02  1.354162716105E-01
C68  4.871294507672E-01  6.584986575354E-02 -2.076954661113E-01
C69  3.773162056562E-01 -7.617613728292E-02  2.658509851924E-01
C70  4.263155496491E-01  2.742804430862E-02 -7.774282120312E-02
H71  4.775847415548E-01  1.173114021124E-01 -3.683147709338E-01
H72  3.867122074405E-01 -1.227695632330E-01  4.283122299054E-01
C73  3.066656043126E-01 -5.659956657495E-02  1.889369233975E-01
C74  3.515027543606E-01  4.501526396300E-02 -1.522970051556E-01
H75  2.606110859462E-01 -8.393257853128E-02  2.942203003801E-01
C76  2.919681372300E-01 -5.199299917030E-04 -2.693240270727E-02
H77  3.429117933184E-01  8.849310253047E-02 -3.163573731588E-01
C78  2.143891199393E-01  5.524173020946E-04 -1.099542474730E-01
C79  1.933502411022E-01  1.050351516103E-01 -2.883620110462E-01
C80  1.593189815865E-01 -1.050906467184E-01 -1.217430341540E-02
H81  2.340209797037E-01  1.896679708909E-01 -3.667324710653E-01
C82  1.204540655181E-01  1.060950812470E-01 -3.645459220589E-01
H83  1.730880481393E-01 -1.917254979180E-01  1.225321528516E-01
C84  8.634395138195E-02 -1.031991766967E-01 -8.737002954990E-02
H85  1.062538907545E-01  1.897457771186E-01  4.981410312612E-01
C86  6.629296185470E-02  3.287538541213E-03 -2.627483387070E-01
H87  4.495485922631E-02 -1.848053942975E-01 -7.456157586620E-03
H88  8.978777282803E-03  6.688844701442E-03 -3.178294878265E-01


#===END
