###############################################################################
#
#                    CRYSTAL17 CIF FILE
#
###############################################################################

data_OPT_STEP_0

_symmetry_space_group_name_H-M 'P 1'
_cell_length_a     17.97300000
_cell_length_b      7.35200000
_cell_length_c      6.24500000
_cell_angle_alpha   90.000000
_cell_angle_beta   90.646004
_cell_angle_gamma   90.000000

loop_
_atom_site_label
_atom_site_fract_x
_atom_site_fract_y
_atom_site_fract_z
C1  1.578559011136E-01 -4.010312678462E-01  4.947294627840E-01
H2  1.698020494632E-01 -3.170027108614E-01 -3.669765444950E-01
C3  8.528506740324E-02 -4.069242207020E-01  4.163209470411E-01
C4  2.148373217361E-01 -4.982980886026E-01  3.949199990945E-01
H5  4.244405459199E-02 -3.305040402095E-01  4.967487077010E-01
C6  6.762305970189E-02  4.903560995363E-01  2.360394095163E-01
C7  1.960390923650E-01  3.999901841163E-01  2.123689296222E-01
C8  2.922410437287E-01 -4.929329726303E-01  4.781313484959E-01
H9  1.072406351369E-02  4.844836775193E-01  1.777305749863E-01
C10  1.236033430381E-01  3.948252695932E-01  1.330867791139E-01
H11  2.380528853990E-01  3.204339104944E-01  1.326598352263E-01
C12  3.513985652080E-01  4.641357492335E-01  3.502977073303E-01
C13  3.074439179483E-01 -4.381383454814E-01 -3.060360612911E-01
H14  1.111712530582E-01  3.140446902199E-01 -7.639997899072E-03
H15  3.423295705854E-01  4.233024387665E-01  1.855717525425E-01
C16  4.262603555779E-01  4.784705930789E-01  4.232921365268E-01
H17  2.617212049367E-01 -4.098345373564E-01 -1.998852643014E-01
C18  3.784210631825E-01 -4.211864488351E-01 -2.302862753091E-01
C19  4.861424842285E-01  4.388163354143E-01  2.904596769950E-01
C20  4.405991800043E-01 -4.596493114859E-01 -3.619372662880E-01
H21  3.884085141354E-01 -3.757032979793E-01 -6.763599226695E-02
H22  4.754217009073E-01  3.901616045302E-01  1.291288228660E-01
C23 -4.405991800043E-01  4.596493114859E-01  3.619372662880E-01
C24 -4.861424842285E-01 -4.388163354143E-01 -2.904596769950E-01
C25 -3.784210631825E-01  4.211864488351E-01  2.302862753091E-01
C26 -4.262603555779E-01 -4.784705930789E-01 -4.232921365268E-01
H27 -4.754217009073E-01 -3.901616045302E-01 -1.291288228660E-01
H28 -3.884085141354E-01  3.757032979793E-01  6.763599226695E-02
C29 -3.074439179483E-01  4.381383454814E-01  3.060360612911E-01
C30 -3.513985652080E-01 -4.641357492335E-01 -3.502977073303E-01
H31 -2.617212049367E-01  4.098345373564E-01  1.998852643014E-01
C32 -2.922410437287E-01  4.929329726303E-01 -4.781313484959E-01
H33 -3.423295705854E-01 -4.233024387665E-01 -1.855717525425E-01
C34 -2.148373217361E-01  4.982980886026E-01 -3.949199990945E-01
C35 -1.960390923650E-01 -3.999901841163E-01 -2.123689296222E-01
C36 -1.578559011136E-01  4.010312678462E-01 -4.947294627840E-01
H37 -2.380528853990E-01 -3.204339104944E-01 -1.326598352263E-01
C38 -1.236033430381E-01 -3.948252695932E-01 -1.330867791139E-01
H39 -1.698020494632E-01  3.170027108614E-01  3.669765444950E-01
C40 -8.528506740324E-02  4.069242207020E-01 -4.163209470411E-01
H41 -1.111712530582E-01 -3.140446902199E-01  7.639997899072E-03
C42 -6.762305970189E-02 -4.903560995363E-01 -2.360394095163E-01
H43 -4.244405459199E-02  3.305040402095E-01 -4.967487077010E-01
H44 -1.072406351369E-02 -4.844836775193E-01 -1.777305749863E-01
C45 -1.578559011136E-01  9.896873215384E-02  5.270537215217E-03
H46 -1.698020494633E-01  1.829972891386E-01 -1.330234555058E-01
C47 -8.528506740324E-02  9.307577929801E-02  8.367905295808E-02
C48 -2.148373217361E-01  1.701911397443E-03  1.050800009047E-01
H49 -4.244405459199E-02  1.694959597905E-01  3.251292298223E-03
C50 -6.762305970189E-02 -9.643900463683E-03  2.639605904829E-01
C51 -1.960390923650E-01 -1.000098158837E-01  2.876310703770E-01
C52 -2.922410437287E-01  7.067027369695E-03  2.186865150330E-02
H53 -1.072406351369E-02 -1.551632248069E-02  3.222694250129E-01
C54 -1.236033430381E-01 -1.051747304068E-01  3.669132208853E-01
H55 -2.380528853991E-01 -1.795660895056E-01  3.673401647729E-01
C56 -3.513985652080E-01 -3.586425076646E-02  1.497022926689E-01
C57 -3.074439179483E-01  6.186165451863E-02 -1.939639387097E-01
H58 -1.111712530582E-01 -1.859553097801E-01 -4.923600021017E-01
H59 -3.423295705854E-01 -7.669756123354E-02  3.144282474567E-01
C60 -4.262603555779E-01 -2.152940692111E-02  7.670786347240E-02
H61 -2.617212049367E-01  9.016546264363E-02 -3.001147356994E-01
C62 -3.784210631825E-01  7.881355116485E-02 -2.697137246917E-01
C63 -4.861424842286E-01 -6.118366458569E-02  2.095403230042E-01
C64 -4.405991800043E-01  4.035068851415E-02 -1.380627337128E-01
H65 -3.884085141354E-01  1.242967020207E-01 -4.323640077338E-01
H66 -4.754217009073E-01 -1.098383954698E-01  3.708711771332E-01
C67  4.405991800043E-01 -4.035068851415E-02  1.380627337112E-01
C68  4.861424842285E-01  6.118366458569E-02 -2.095403230058E-01
C69  3.784210631825E-01 -7.881355116485E-02  2.697137246901E-01
C70  4.262603555779E-01  2.152940692111E-02 -7.670786347400E-02
H71  4.754217009073E-01  1.098383954698E-01 -3.708711771348E-01
H72  3.884085141354E-01 -1.242967020207E-01  4.323640077322E-01
C73  3.074439179483E-01 -6.186165451863E-02  1.939639387081E-01
C74  3.513985652080E-01  3.586425076646E-02 -1.497022926705E-01
H75  2.617212049367E-01 -9.016546264363E-02  3.001147356978E-01
C76  2.922410437287E-01 -7.067027369696E-03 -2.186865150491E-02
H77  3.423295705854E-01  7.669756123354E-02 -3.144282474583E-01
C78  2.148373217361E-01 -1.701911397443E-03 -1.050800009063E-01
C79  1.960390923650E-01  1.000098158837E-01 -2.876310703786E-01
C80  1.578559011136E-01 -9.896873215384E-02 -5.270537216818E-03
H81  2.380528853990E-01  1.795660895056E-01 -3.673401647745E-01
C82  1.236033430381E-01  1.051747304068E-01 -3.669132208869E-01
H83  1.698020494632E-01 -1.829972891386E-01  1.330234555042E-01
C84  8.528506740324E-02 -9.307577929801E-02 -8.367905295968E-02
H85  1.111712530582E-01  1.859553097801E-01  4.923600021001E-01
C86  6.762305970188E-02  9.643900463683E-03 -2.639605904845E-01
H87  4.244405459199E-02 -1.694959597905E-01 -3.251292299825E-03
H88  1.072406351368E-02  1.551632248069E-02 -3.222694250145E-01


#===END
