###############################################################
#
#primitive cell cif file
#
###############################################################

DP910Aposm13_data

_symmetry_space_group_name_H-M 'P 1'
_cell_length_a      8.64136129
_cell_length_b      8.64136129
_cell_length_c      12.29000000
_cell_angle_alpha   89.628883
_cell_angle_beta    90.371117
_cell_angle_gamma   76.418725

loop_
_atom_site_label
_atom_site_fract_x
_atom_site_fract_y
_atom_site_fract_z
C1 -3.349841783531E-01 -4.583421055146E-02 -4.822289248055E-01
C2 -4.251248650752E-01 9.578345459718E-02 -4.365464085096E-01
C3 -1.664250867059E-01 -9.610518640531E-02 -4.668623159372E-01
C4 -4.116204225757E-01 -1.424076229228E-01 4.506917047571E-01
C5 4.095275571988E-01 1.419551950385E-01 -4.559523757819E-01
C6 -3.465150981615E-01 1.985365458425E-01 -3.693423372117E-01
H7 -1.070554663327E-01 -2.327706363800E-02 -4.182445705213E-01
C8 -7.967437442838E-02 -2.312209988352E-01 4.863773852068E-01
C9 4.232624526078E-01 -9.581226662316E-02 4.309911619746E-01
C10 -3.151856598925E-01 -2.821534805995E-01 4.026597355948E-01
C11 3.125300899485E-01 2.807351691303E-01 -4.072053855917E-01
C12 3.331544573629E-01 4.596148955079E-02 4.761370417952E-01
C13 -2.730981312888E-01 1.448219602565E-01 -2.699013858028E-01
C14 -3.452008322927E-01 3.524854597586E-01 -4.048344651248E-01
H15 4.799220816313E-02 -2.661658076712E-01 4.982732391838E-01
C16 -1.549932193921E-01 -3.254629737322E-01 4.199150512819E-01
C17 3.461731805369E-01 -1.989458585900E-01 3.630625142180E-01
H18 -3.712752636647E-01 -3.543393429010E-01 3.512035347416E-01
H19 3.680023448930E-01 3.515708499118E-01 -3.541950941899E-01
C20 1.526112081399E-01 3.246591277058E-01 -4.254543910194E-01
C21 1.648920228668E-01 9.704020914753E-02 4.592160434436E-01
H22 -2.729936765480E-01 2.607102187102E-02 -2.407461132988E-01
C23 -1.997510735599E-01 2.418334519428E-01 -2.082101556573E-01
H24 -3.995475940334E-01 3.947759015075E-01 -4.825747513478E-01
C25 -2.740384888612E-01 4.504926728592E-01 -3.423956940925E-01
H26 -8.430678621631E-02 -4.307481996927E-01 3.816037860935E-01
C27 2.864929705502E-01 -1.508765165756E-01 2.591272163925E-01
C28 3.356362196071E-01 -3.486800805552E-01 4.017537526857E-01
H29 8.144929863371E-02 4.294350338485E-01 -3.868079741616E-01
C30 7.790802474856E-02 2.318589673095E-01 -4.936485968302E-01
H31 1.062027011773E-01 2.514770304636E-02 4.091436715246E-01
H32 -1.415517689840E-01 1.983247238044E-01 -1.319603538451E-01
C33 -2.005997711393E-01 3.950771430775E-01 -2.439178717883E-01
H34 -2.748959173343E-01 -4.307646625862E-01 -3.716045132209E-01
H35 2.920602523930E-01 -3.451702790365E-02 2.282645287388E-01
C36 2.190213002883E-01 -2.505441282698E-01 1.955426093081E-01
H37 3.790025936584E-01 -3.858795197063E-01 4.830981959556E-01
C38 2.698810297070E-01 -4.490819465871E-01 3.376203746862E-01
H39 -4.953385901358E-02 2.680244944080E-01 4.938181327513E-01
H40 -1.437986578291E-01 4.701746038030E-01 -1.950921367625E-01
H41 1.708686878165E-01 -2.114511827890E-01 1.157757499662E-01
C42 2.114517765674E-01 -4.000863691536E-01 2.341063992100E-01
H43 2.634089294542E-01 4.352566341452E-01 3.692348655426E-01
H44 1.591508539786E-01 -4.772136451526E-01 1.839389518489E-01
C45 -4.583421055147E-02 -3.349841783531E-01 -1.777107519445E-02
C46 9.578345459717E-02 -4.251248650752E-01 -6.345359149040E-02
C47 -9.610518640532E-02 -1.664250867059E-01 -3.313768406284E-02
C48 -1.424076229228E-01 -4.116204225757E-01 4.930829524289E-02
C49 1.419551950385E-01 4.095275571988E-01 -4.404762421808E-02
C50 1.985365458425E-01 -3.465150981615E-01 -1.306576627883E-01
H51 -2.327706363801E-02 -1.070554663327E-01 -8.175542947866E-02
C52 -2.312209988353E-01 -7.967437442837E-02 1.362261479322E-02
C53 -9.581226662317E-02 4.232624526079E-01 6.900883802536E-02
C54 -2.821534805995E-01 -3.151856598925E-01 9.734026440520E-02
C55 2.807351691303E-01 3.125300899485E-01 -9.279461440830E-02
C56 4.596148955078E-02 3.331544573629E-01 2.386295820476E-02
C57 1.448219602565E-01 -2.730981312888E-01 -2.300986141972E-01
C58 3.524854597586E-01 -3.452008322927E-01 -9.516553487518E-02
H59 -2.661658076712E-01 4.799220816314E-02 1.726760816188E-03
C60 -3.254629737322E-01 -1.549932193921E-01 8.008494871805E-02
C61 -1.989458585900E-01 3.461731805369E-01 1.369374857820E-01
H62 -3.543393429010E-01 -3.712752636647E-01 1.487964652584E-01
H63 3.515708499118E-01 3.680023448931E-01 -1.458049058101E-01
C64 3.246591277058E-01 1.526112081399E-01 -7.454560898057E-02
C65 9.704020914753E-02 1.648920228668E-01 4.078395655640E-02
H66 2.607102187101E-02 -2.729936765480E-01 -2.592538867012E-01
C67 2.418334519428E-01 -1.997510735599E-01 -2.917898443427E-01
H68 3.947759015075E-01 -3.995475940334E-01 -1.742524865222E-02
C69 4.504926728591E-01 -2.740384888612E-01 -1.576043059075E-01
H70 -4.307481996927E-01 -8.430678621630E-02 1.183962139065E-01
C71 -1.508765165756E-01 2.864929705502E-01 2.408727836075E-01
C72 -3.486800805552E-01 3.356362196072E-01 9.824624731434E-02
H73 4.294350338485E-01 8.144929863371E-02 -1.131920258384E-01
C74 2.318589673095E-01 7.790802474857E-02 -6.351403169809E-03
H75 2.514770304635E-02 1.062027011774E-01 9.085632847542E-02
H76 1.983247238044E-01 -1.415517689840E-01 -3.680396461549E-01
C77 3.950771430775E-01 -2.005997711393E-01 -2.560821282117E-01
H78 -4.307646625862E-01 -2.748959173343E-01 -1.283954867791E-01
H79 -3.451702790366E-02 2.920602523931E-01 2.717354712612E-01
C80 -2.505441282698E-01 2.190213002883E-01 3.044573906919E-01
H81 -3.858795197063E-01 3.790025936584E-01 1.690180404437E-02
C82 -4.490819465871E-01 2.698810297070E-01 1.623796253138E-01
H83 2.680244944080E-01 -4.953385901357E-02 6.181867248722E-03
H84 4.701746038030E-01 -1.437986578291E-01 -3.049078632375E-01
H85 -2.114511827890E-01 1.708686878165E-01 3.842242500338E-01
C86 -4.000863691536E-01 2.114517765674E-01 2.658936007900E-01
H87 4.352566341452E-01 2.634089294543E-01 1.307651344574E-01
H88 -4.772136451526E-01 1.591508539787E-01 3.160610481511E-01


#===END
