###############################################################
#
#primitive cell cif file
#
###############################################################

DP910Anegm22_data

_symmetry_space_group_name_H-M 'P 1'
_cell_length_a      8.64136129
_cell_length_b      8.64136129
_cell_length_c      12.29000000
_cell_angle_alpha   89.628883
_cell_angle_beta    90.371117
_cell_angle_gamma   76.418725

loop_
_atom_site_label
_atom_site_fract_x
_atom_site_fract_y
_atom_site_fract_z
C1 -3.343562865075E-01 -4.806308361018E-02 -4.777372394504E-01
C2 -4.242452970006E-01 9.315258832713E-02 -4.315055356174E-01
C3 -1.665069902753E-01 -1.015050832995E-01 -4.595646888142E-01
C4 -4.107729331946E-01 -1.411879499002E-01 4.520483560456E-01
C5 4.107729331946E-01 1.411879499002E-01 -4.520483560456E-01
C6 -3.463252349716E-01 1.965068216867E-01 -3.644114040473E-01
H7 -1.075532963525E-01 -3.147994330495E-02 -4.081188242135E-01
C8 -8.004566830656E-02 -2.359888964201E-01 4.926260902959E-01
C9 4.242452970006E-01 -9.315258832713E-02 4.315055356174E-01
C10 -3.141810074799E-01 -2.790342989703E-01 4.019226373751E-01
C11 3.141810074799E-01 2.790342989703E-01 -4.019226373751E-01
C12 3.343562865075E-01 4.806308361018E-02 4.777372394504E-01
C13 -2.780038813622E-01 1.478540270943E-01 -2.628291588835E-01
C14 -3.423755344518E-01 3.481523889395E-01 -4.030860934780E-01
H15 4.706685335929E-02 -2.738482598820E-01 -4.934038716590E-01
C16 -1.546773781496E-01 -3.253115827567E-01 4.215954880901E-01
C17 3.463252349716E-01 -1.965068216867E-01 3.644114040473E-01
H18 -3.695520948762E-01 -3.473163096636E-01 3.468259571644E-01
H19 3.695520948762E-01 3.473163096636E-01 -3.468259571644E-01
C20 1.546773781496E-01 3.253115827567E-01 -4.215954880901E-01
C21 1.665069902753E-01 1.015050832995E-01 4.595646888142E-01
H22 -2.791090042041E-01 3.053853927805E-02 -2.314643544959E-01
C23 -2.078923462865E-01 2.484067583454E-01 -2.019138069968E-01
H24 -3.926547318595E-01 3.860861220078E-01 -4.825908802259E-01
C25 -2.743768792373E-01 4.495120148298E-01 -3.415360047207E-01
H26 -8.380336260914E-02 -4.291557350998E-01 3.817745044197E-01
C27 2.780038813622E-01 -1.478540270943E-01 2.628291588835E-01
C28 3.423755344518E-01 -3.481523889395E-01 4.030860934780E-01
H29 8.380336260914E-02 4.291557350998E-01 -3.817745044197E-01
C30 8.004566830656E-02 2.359888964201E-01 -4.926260902959E-01
H31 1.075532963525E-01 3.147994330495E-02 4.081188242135E-01
H32 -1.533538593462E-01 2.088000386554E-01 -1.240071705192E-01
C33 -2.067243084942E-01 3.996370062447E-01 -2.405819522410E-01
H34 -2.732710238091E-01 -4.334949413741E-01 -3.731441509371E-01
H35 2.791090042041E-01 -3.053853927805E-02 2.314643544959E-01
C36 2.078923462865E-01 -2.484067583454E-01 2.019138069968E-01
H37 3.926547318595E-01 -3.860861220078E-01 4.825908802259E-01
C38 2.743768792373E-01 -4.495120148298E-01 3.415360047207E-01
H39 -4.706685335929E-02 2.738482598820E-01 4.934038716590E-01
H40 -1.525929715437E-01 4.774229661333E-01 -1.922387609543E-01
H41 1.533538593462E-01 -2.088000386554E-01 1.240071705192E-01
C42 2.067243084942E-01 -3.996370062447E-01 2.405819522410E-01
H43 2.732710238091E-01 4.334949413741E-01 3.731441509371E-01
H44 1.525929715437E-01 -4.774229661333E-01 1.922387609543E-01
C45 -4.373261649206E-02 -3.337823492085E-01 -1.937127284959E-02
C46 9.844313289312E-02 -4.241420206824E-01 -6.396796513310E-02
C47 -9.164031225333E-02 -1.648101192973E-01 -3.348632943343E-02
C48 -1.431748680611E-01 -4.103750465799E-01 4.540427550657E-02
C49 1.431748680611E-01 4.103750465799E-01 -4.540427550657E-02
C50 2.009755827457E-01 -3.463630437268E-01 -1.320065526176E-01
H51 -1.694482337942E-02 -1.057048711575E-01 -8.073058216754E-02
C52 -2.270910697247E-01 -7.753673087028E-02 1.260010825894E-02
C53 -9.844313289312E-02 4.241420206824E-01 6.396796513310E-02
C54 -2.838543507595E-01 -3.135347423611E-01 9.205751618862E-02
C55 2.838543507595E-01 3.135347423611E-01 -9.205751618862E-02
C56 4.373261649206E-02 3.337823492085E-01 1.937127284959E-02
C57 1.478444497379E-01 -2.815872204768E-01 -2.338005566882E-01
C58 3.530131513742E-01 -3.384615174481E-01 -9.649787566749E-02
H59 -2.603420421972E-01 5.045921381741E-02 2.141021908510E-03
C60 -3.248105186813E-01 -1.529270493823E-01 7.622604578870E-02
C61 -2.009755827457E-01 3.463630437268E-01 1.320065526176E-01
H62 -3.585938831493E-01 -3.697255136815E-01 1.414273282330E-01
H63 3.585938831493E-01 3.697255136815E-01 -1.414273282330E-01
C64 3.248105186813E-01 1.529270493823E-01 -7.622604578870E-02
C65 9.164031225333E-02 1.648101192973E-01 3.348632943343E-02
H66 3.004951049662E-02 -2.859449247370E-01 -2.624537124584E-01
C67 2.439708218671E-01 -2.108800275617E-01 -2.981610420314E-01
H68 3.945692992060E-01 -3.858954558324E-01 -1.691793292253E-02
C69 4.500626046165E-01 -2.695426393309E-01 -1.615199359420E-01
H70 -4.310274984413E-01 -8.195272224087E-02 1.133627441647E-01
C71 -1.478444497379E-01 2.815872204768E-01 2.338005566882E-01
C72 -3.530131513742E-01 3.384615174481E-01 9.649787566749E-02
H73 4.310274984413E-01 8.195272224087E-02 -1.133627441647E-01
C74 2.270910697247E-01 7.753673087028E-02 -1.260010825894E-02
H75 1.694482337942E-02 1.057048711575E-01 8.073058216754E-02
H76 2.009758679380E-01 -1.590665974542E-01 -3.762710667078E-01
C77 3.955265059862E-01 -2.053272392124E-01 -2.625576812427E-01
H78 -4.325263553573E-01 -2.650338229794E-01 -1.323047721736E-01
H79 -3.004951049662E-02 2.859449247370E-01 2.624537124584E-01
C80 -2.439708218671E-01 2.108800275617E-01 2.981610420314E-01
H81 -3.945692992060E-01 3.858954558324E-01 1.691793292253E-02
C82 -4.500626046165E-01 2.695426393309E-01 1.615199359420E-01
H83 2.603420421972E-01 -5.045921381741E-02 -2.141021908510E-03
H84 4.699652828223E-01 -1.503565402640E-01 -3.132076723430E-01
H85 -2.009758679380E-01 1.590665974542E-01 3.762710667078E-01
C86 -3.955265059862E-01 2.053272392124E-01 2.625576812427E-01
H87 4.325263553573E-01 2.650338229794E-01 1.323047721736E-01
H88 -4.699652828223E-01 1.503565402640E-01 3.132076723430E-01


#===END
