###############################################################
#
#primitive cell cif file
#
###############################################################

DP910Aposm20_data

_symmetry_space_group_name_H-M 'P 1'
_cell_length_a      8.64136129
_cell_length_b      8.64136129
_cell_length_c      12.29000000
_cell_angle_alpha   89.628883
_cell_angle_beta    90.371117
_cell_angle_gamma   76.418725

loop_
_atom_site_label
_atom_site_fract_x
_atom_site_fract_y
_atom_site_fract_z
C1 -3.340104079874E-01 -4.705608510184E-02 -4.790231616814E-01
C2 -4.230501018667E-01 9.599573212212E-02 -4.344789389870E-01
C3 -1.654558933998E-01 -9.845529372011E-02 -4.634327106032E-01
C4 -4.116398831151E-01 -1.436013631716E-01 4.543918780688E-01
C5 4.116398831151E-01 1.436013631716E-01 -4.543918780688E-01
C6 -3.450948084032E-01 1.985133743974E-01 -3.665563337993E-01
H7 -1.054479838800E-01 -2.559163146003E-02 -4.152856323755E-01
C8 -7.937177716454E-02 -2.344256857397E-01 4.902890970326E-01
C9 4.230501018667E-01 -9.599573212212E-02 4.344789389870E-01
C10 -3.155962469809E-01 -2.841019003373E-01 4.068748958885E-01
C11 3.155962469809E-01 2.841019003373E-01 -4.068748958885E-01
C12 3.340104079874E-01 4.705608510184E-02 4.790231616814E-01
C13 -2.735758508861E-01 1.445988700469E-01 -2.666561314101E-01
C14 -3.460334402192E-01 3.539138721605E-01 -4.003578671766E-01
H15 4.841506904182E-02 -2.700483953269E-01 -4.983299981451E-01
C16 -1.555049001026E-01 -3.285417431780E-01 4.243418591971E-01
C17 3.450948084032E-01 -1.985133743974E-01 3.665563337993E-01
H18 -3.717670547719E-01 -3.559969646858E-01 3.552840052286E-01
H19 3.717670547719E-01 3.559969646858E-01 -3.552840052286E-01
C20 1.555049001026E-01 3.285417431780E-01 -4.243418591971E-01
C21 1.654558933998E-01 9.845529372011E-02 4.634327106032E-01
H22 -2.707745780505E-01 2.452102458745E-02 -2.388403516127E-01
C23 -2.064966857149E-01 2.437251301599E-01 -2.023280151551E-01
H24 -3.977071690606E-01 3.958564938204E-01 -4.788825029070E-01
C25 -2.816142134353E-01 4.541893722336E-01 -3.351363393952E-01
H26 -8.528738079677E-02 -4.343526697420E-01 3.862598659727E-01
C27 2.735758508861E-01 -1.445988700469E-01 2.666561314101E-01
C28 3.460334402192E-01 -3.539138721605E-01 4.003578671766E-01
H29 8.528738079677E-02 4.343526697420E-01 -3.862598659727E-01
C30 7.937177716454E-02 2.344256857397E-01 -4.902890970326E-01
H31 1.054479838800E-01 2.559163146003E-02 4.152856323755E-01
H32 -1.496506913641E-01 2.000550721007E-01 -1.257925225974E-01
C33 -2.117912701532E-01 3.991766085746E-01 -2.356021255604E-01
H34 -2.848929858019E-01 -4.256256185511E-01 -3.628245615702E-01
H35 2.707745780505E-01 -2.452102458745E-02 2.388403516127E-01
C36 2.064966857149E-01 -2.437251301599E-01 2.023280151551E-01
H37 3.977071690606E-01 -3.958564938204E-01 4.788825029070E-01
C38 2.816142134353E-01 -4.541893722336E-01 3.351363393952E-01
H39 -4.841506904182E-02 2.700483953269E-01 4.983299981451E-01
H40 -1.606193198542E-01 4.761213987420E-01 -1.844841007745E-01
H41 1.496506913641E-01 -2.000550721007E-01 1.257925225974E-01
C42 2.117912701532E-01 -3.991766085746E-01 2.356021255604E-01
H43 2.848929858019E-01 4.256256185511E-01 3.628245615702E-01
H44 1.606193198542E-01 -4.761213987420E-01 1.844841007745E-01
C45 -4.473961500041E-02 -3.341282277286E-01 -2.065719508056E-02
C46 9.559998909822E-02 -4.253372158163E-01 -6.694136850279E-02
C47 -9.469010183282E-02 -1.658612161728E-01 -3.735435122242E-02
C48 -1.407614547898E-01 -4.095080966593E-01 4.774779752977E-02
C49 1.407614547898E-01 4.095080966593E-01 -4.774779752977E-02
C50 1.989690300350E-01 -3.475934702952E-01 -1.341514823696E-01
H51 -2.283313522433E-02 -1.078101836300E-01 -8.789739032954E-02
C52 -2.286542804050E-01 -7.821062201239E-02 1.026311499558E-02
C53 -9.559998909822E-02 4.253372158163E-01 6.694136850279E-02
C54 -2.787867493925E-01 -3.121195028601E-01 9.700977470202E-02
C55 2.787867493925E-01 3.121195028601E-01 -9.700977470202E-02
C56 4.473961500041E-02 3.341282277286E-01 2.065719508056E-02
C57 1.510996067852E-01 -2.860152509528E-01 -2.376275292148E-01
C58 3.472516681532E-01 -3.348036116807E-01 -9.376964936615E-02
H59 -2.641419067523E-01 4.911099813488E-02 -2.785104577601E-03
C60 -3.215803582600E-01 -1.520995274294E-01 7.897241689575E-02
C61 -1.989690300350E-01 3.475934702952E-01 1.341514823696E-01
H62 -3.499132281270E-01 -3.675105537858E-01 1.498853762971E-01
H63 3.499132281270E-01 3.675105537858E-01 -1.498853762971E-01
C64 3.215803582600E-01 1.520995274294E-01 -7.897241689575E-02
C65 9.469010183282E-02 1.658612161728E-01 3.735435122242E-02
H66 3.606702518722E-02 -2.942793508906E-01 -2.698297095751E-01
C67 2.486524500527E-01 -2.122756881333E-01 -2.985752501896E-01
H68 3.847989273934E-01 -3.808430186313E-01 -1.320955560358E-02
C69 4.453852472126E-01 -2.623053051329E-01 -1.551202706165E-01
H70 -4.258305637992E-01 -8.046870405324E-02 1.178481057176E-01
C71 -1.510996067852E-01 2.860152509528E-01 2.376275292148E-01
C72 -3.472516681532E-01 3.348036116807E-01 9.376964936615E-02
H73 4.258305637992E-01 8.046870405324E-02 -1.178481057176E-01
C74 2.286542804050E-01 7.821062201239E-02 -1.026311499558E-02
H75 2.283313522433E-02 1.078101836300E-01 8.789739032954E-02
H76 2.097208344927E-01 -1.627697654364E-01 -3.780564187861E-01
C77 3.959869036565E-01 -2.002602775535E-01 -2.575778545620E-01
H78 -4.403956781802E-01 -2.534118609866E-01 -1.219851828067E-01
H79 -3.606702518722E-02 2.942793508906E-01 2.698297095751E-01
C80 -2.486524500527E-01 2.122756881333E-01 2.985752501896E-01
H81 -3.847989273934E-01 3.808430186313E-01 1.320955560358E-02
C82 -4.453852472126E-01 2.623053051329E-01 1.551202706165E-01
H83 2.641419067523E-01 -4.911099813489E-02 2.785104577601E-03
H84 4.712668502136E-01 -1.423301919535E-01 -3.054530121631E-01
H85 -2.097208344927E-01 1.627697654364E-01 3.780564187861E-01
C86 -3.959869036565E-01 2.002602775535E-01 2.575778545620E-01
H87 4.403956781802E-01 2.534118609866E-01 1.219851828067E-01
H88 -4.712668502136E-01 1.423301919535E-01 3.054530121631E-01


#===END
