###############################################################
#
#primitive cell cif file
#
###############################################################

DP910Anegm11_data

_symmetry_space_group_name_H-M 'P 1'
_cell_length_a      8.64136129
_cell_length_b      8.64136129
_cell_length_c      12.29000000
_cell_angle_alpha   89.628883
_cell_angle_beta    90.371117
_cell_angle_gamma   76.418725

loop_
_atom_site_label
_atom_site_fract_x
_atom_site_fract_y
_atom_site_fract_z
C1 -3.351526976424E-01 -4.359017893820E-02 -4.826276165070E-01
C2 -4.254949513752E-01 9.722890015314E-02 -4.363335362432E-01
C3 -1.663897641205E-01 -9.296554959479E-02 -4.676800501510E-01
C4 -4.115230266406E-01 -1.395554794931E-01 4.496188061592E-01
C5 4.096249531338E-01 1.448073384682E-01 -4.570252743799E-01
C6 -3.473795951409E-01 1.977939556341E-01 -3.667567804712E-01
H7 -1.077181350505E-01 -2.114326244033E-02 -4.175472982673E-01
C8 -7.888197007813E-02 -2.255077242192E-01 4.828775094729E-01
C9 4.228923663078E-01 -9.436682106720E-02 4.312040342410E-01
C10 -3.143176233617E-01 -2.768801180338E-01 3.993465756982E-01
C11 3.133981264793E-01 2.860085316961E-01 -4.105185454883E-01
C12 3.329859380737E-01 4.820552116405E-02 4.757383500938E-01
C13 -2.866309572374E-01 1.454317557099E-01 -2.637596969707E-01
C14 -3.344718830087E-01 3.479306277088E-01 -4.032597417776E-01
H15 4.904048790577E-02 -2.598603851391E-01 4.935757508480E-01
C16 -1.537183644802E-01 -3.185022478482E-01 4.149826070253E-01
C17 3.453086835575E-01 -1.996884487983E-01 3.656480709585E-01
H18 -3.700548225128E-01 -3.481026030284E-01 3.469024646602E-01
H19 3.692227860449E-01 3.578075897844E-01 -3.584961642712E-01
C20 1.538860630517E-01 3.316198535898E-01 -4.303868352760E-01
C21 1.649273454521E-01 1.001798459581E-01 4.583983092297E-01
H22 -2.941563149502E-01 2.882697525566E-02 -2.344110923401E-01
C23 -2.152185635092E-01 2.409398412973E-01 -1.992797640372E-01
H24 -3.787314112137E-01 3.886040766122E-01 -4.837612156823E-01
C25 -2.646402933484E-01 4.442037593606E-01 -3.382684368771E-01
H26 -8.227633845151E-02 -4.213445895240E-01 3.744367362822E-01
C27 2.729601446015E-01 -1.502667211223E-01 2.652689052246E-01
C28 3.463651688912E-01 -3.532349126049E-01 4.033284760329E-01
H29 8.347974639850E-02 4.388386440171E-01 -3.939750239729E-01
C30 7.870042909881E-02 2.375722419255E-01 -4.971484725641E-01
H31 1.055400324595E-01 2.728150424403E-02 4.098409437786E-01
H32 -1.663922271211E-01 1.986306115333E-01 -1.202253050789E-01
C33 -2.045967031775E-01 3.906765786330E-01 -2.359442791814E-01
H34 -2.562022347629E-01 -4.398187186470E-01 -3.684872196857E-01
H35 2.708976139909E-01 -3.176107451900E-02 2.345995496974E-01
C36 2.035538103390E-01 -2.514377389153E-01 2.044730009283E-01
H37 3.998187764782E-01 -3.920513446016E-01 4.819117316211E-01
C38 2.792792252198E-01 -4.553708600856E-01 3.417476319016E-01
H39 -4.848557927094E-02 2.743299169402E-01 4.891206444155E-01
H40 -1.488795066323E-01 4.643961841687E-01 -1.851499986383E-01
H41 1.460282296794E-01 -2.111452950601E-01 1.275107987325E-01
C42 2.074548445292E-01 -4.044869335980E-01 2.420799918169E-01
H43 2.821026120256E-01 4.262025780844E-01 3.723521590778E-01
H44 1.540700051754E-01 -4.829920647869E-01 1.938810899731E-01
C45 -4.359017893821E-02 -3.351526976424E-01 -1.737238349299E-02
C46 9.722890015313E-02 -4.254949513752E-01 -6.366646375679E-02
C47 -9.296554959479E-02 -1.663897641205E-01 -3.231994984896E-02
C48 -1.395554794931E-01 -4.115230266406E-01 5.038119384083E-02
C49 1.448073384682E-01 4.096249531339E-01 -4.297472562014E-02
C50 1.977939556341E-01 -3.473795951409E-01 -1.332432195288E-01
H51 -2.114326244034E-02 -1.077181350505E-01 -8.245270173266E-02
C52 -2.255077242192E-01 -7.888197007812E-02 1.712249052709E-02
C53 -9.436682106721E-02 4.228923663079E-01 6.879596575896E-02
C54 -2.768801180338E-01 -3.143176233617E-01 1.006534243018E-01
C55 2.860085316961E-01 3.133981264793E-01 -8.948145451171E-02
C56 4.820552116404E-02 3.329859380737E-01 2.426164990622E-02
C57 1.454317557099E-01 -2.866309572374E-01 -2.362403030293E-01
C58 3.479306277088E-01 -3.344718830087E-01 -9.674025822241E-02
H59 -2.598603851391E-01 4.904048790578E-02 6.424249152012E-03
C60 -3.185022478482E-01 -1.537183644802E-01 8.501739297465E-02
C61 -1.996884487983E-01 3.453086835575E-01 1.343519290415E-01
H62 -3.481026030284E-01 -3.700548225128E-01 1.530975353398E-01
H63 3.578075897844E-01 3.692227860449E-01 -1.415038357288E-01
C64 3.316198535898E-01 1.538860630517E-01 -6.961316472397E-02
C65 1.001798459580E-01 1.649273454521E-01 4.160169077028E-02
H66 2.882697525565E-02 -2.941563149502E-01 -2.655889076599E-01
C67 2.409398412973E-01 -2.152185635092E-01 -3.007202359628E-01
H68 3.886040766122E-01 -3.787314112137E-01 -1.623878431767E-02
C69 4.442037593606E-01 -2.646402933484E-01 -1.617315631229E-01
H70 -4.213445895241E-01 -8.227633845150E-02 1.255632637178E-01
C71 -1.502667211223E-01 2.729601446015E-01 2.347310947754E-01
C72 -3.532349126049E-01 3.463651688912E-01 9.667152396711E-02
H73 4.388386440171E-01 8.347974639851E-02 -1.060249760271E-01
C74 2.375722419255E-01 7.870042909882E-02 -2.851527435938E-03
H75 2.728150424402E-02 1.055400324595E-01 9.015905622142E-02
H76 1.986306115333E-01 -1.663922271211E-01 -3.797746949211E-01
C77 3.906765786330E-01 -2.045967031775E-01 -2.640557208186E-01
H78 -4.398187186470E-01 -2.562022347629E-01 -1.315127803143E-01
H79 -3.176107451901E-02 2.708976139909E-01 2.654004503026E-01
C80 -2.514377389153E-01 2.035538103390E-01 2.955269990717E-01
H81 -3.920513446016E-01 3.998187764782E-01 1.808826837892E-02
C82 -4.553708600856E-01 2.792792252198E-01 1.582523680984E-01
H83 2.743299169401E-01 -4.848557927093E-02 1.087935558455E-02
H84 4.643961841687E-01 -1.488795066323E-01 -3.148500013617E-01
H85 -2.111452950601E-01 1.460282296794E-01 3.724892012675E-01
C86 -4.044869335980E-01 2.074548445292E-01 2.579200081831E-01
H87 4.262025780844E-01 2.821026120257E-01 1.276478409222E-01
H88 -4.829920647869E-01 1.540700051754E-01 3.061189100269E-01


#===END
