###############################################################
#
#primitive cell cif file
#
###############################################################

DP910Anegm14_data

_symmetry_space_group_name_H-M 'P 1'
_cell_length_a      8.64136129
_cell_length_b      8.64136129
_cell_length_c      12.29000000
_cell_angle_alpha   89.628883
_cell_angle_beta    90.371117
_cell_angle_gamma   76.418725

loop_
_atom_site_label
_atom_site_fract_x
_atom_site_fract_y
_atom_site_fract_z
C1 -3.335704429369E-01 -4.435471644503E-02 -4.804819331881E-01
C2 -4.249608341845E-01 9.457774562177E-02 -4.322563616335E-01
C3 -1.648236220630E-01 -9.369368012625E-02 -4.654022372654E-01
C4 -4.093677733861E-01 -1.392413893339E-01 4.503284112119E-01
C5 4.093677733861E-01 1.392413893339E-01 -4.503284112119E-01
C6 -3.477744779549E-01 1.973110448873E-01 -3.640100959191E-01
H7 -1.062530026654E-01 -2.262447194846E-02 -4.146026157322E-01
C8 -7.706035385449E-02 -2.261446963143E-01 4.851599824248E-01
C9 4.249608341845E-01 -9.457774562177E-02 4.322563616335E-01
C10 -3.116595758554E-01 -2.754366223901E-01 3.990164530026E-01
C11 3.116595758554E-01 2.754366223901E-01 -3.990164530026E-01
C12 3.335704429369E-01 4.435471644503E-02 4.804819331881E-01
C13 -2.788904768279E-01 1.450013887671E-01 -2.631762210696E-01
C14 -3.441945826296E-01 3.503193509069E-01 -4.000534789664E-01
H15 5.062543659946E-02 -2.611831806404E-01 4.970218501992E-01
C16 -1.513613364523E-01 -3.180473718430E-01 4.159789366641E-01
C17 3.477744779549E-01 -1.973110448873E-01 3.640100959191E-01
H18 -3.668933362598E-01 -3.456453974194E-01 3.453224672245E-01
H19 3.668933362598E-01 3.456453974194E-01 -3.453224672245E-01
C20 1.513613364523E-01 3.180473718430E-01 -4.159789366641E-01
C21 1.648236220630E-01 9.369368012625E-02 4.654022372654E-01
H22 -2.796731143102E-01 2.653840599204E-02 -2.340394243012E-01
C23 -2.084862309450E-01 2.431508347707E-01 -2.003517150584E-01
H24 -3.945972694448E-01 3.909880996081E-01 -4.791203256051E-01
C25 -2.756574365506E-01 4.493072167700E-01 -3.366063498496E-01
H26 -7.973688859165E-02 -4.209784796964E-01 3.755987186150E-01
C27 2.788904768279E-01 -1.450013887671E-01 2.631762210696E-01
C28 3.441945826296E-01 -3.503193509069E-01 4.000534789664E-01
H29 7.973688859165E-02 4.209784796964E-01 -3.755987186150E-01
C30 7.706035385449E-02 2.261446963143E-01 -4.851599824248E-01
H31 1.062530026654E-01 2.262447194846E-02 4.146026157322E-01
H32 -1.532873015201E-01 2.008715960755E-01 -1.230639240814E-01
C33 -2.074721493807E-01 3.956692370542E-01 -2.363960413154E-01
H34 -2.742132490743E-01 -4.326572104391E-01 -3.662077230482E-01
H35 2.796731143102E-01 -2.653840599204E-02 2.340394243012E-01
C36 2.084862309450E-01 -2.431508347707E-01 2.003517150584E-01
H37 3.945972694448E-01 -3.909880996081E-01 4.791203256051E-01
C38 2.756574365506E-01 -4.493072167700E-01 3.366063498496E-01
H39 -5.062543659946E-02 2.611831806404E-01 -4.970218501992E-01
H40 -1.527175611382E-01 4.714473012466E-01 -1.867872015469E-01
H41 1.532873015201E-01 -2.008715960755E-01 1.230639240814E-01
C42 2.074721493807E-01 -3.956692370542E-01 2.363960413154E-01
H43 2.742132490743E-01 4.326572104391E-01 3.662077230482E-01
H44 1.527175611382E-01 -4.714473012466E-01 1.867872015469E-01
C45 -4.744098365722E-02 -3.345681927792E-01 -2.211596658728E-02
C46 9.701797559857E-02 -4.234264834986E-01 -6.471879114927E-02
C47 -9.945171542659E-02 -1.664934875096E-01 -3.932387788467E-02
C48 -1.451214286274E-01 -4.117802063884E-01 4.368433067289E-02
C49 1.451214286274E-01 4.117802063884E-01 -4.368433067289E-02
C50 2.001713595451E-01 -3.449138007435E-01 -1.316052444895E-01
H51 -2.580029473591E-02 -1.070051648446E-01 -8.721437368631E-02
C52 -2.369352698304E-01 -8.052204532245E-02 5.134000387879E-03
C53 -9.701797559857E-02 4.234264834986E-01 6.471879114927E-02
C54 -2.874520273397E-01 -3.160561739856E-01 8.915133181612E-02
C55 2.874520273397E-01 3.160561739856E-01 -8.915133181612E-02
C56 4.744098365722E-02 3.345681927792E-01 2.211596658728E-02
C57 1.506970880650E-01 -2.807006250110E-01 -2.341476188743E-01
C58 3.508461894068E-01 -3.366424692703E-01 -9.346526115596E-02
H59 -2.730071214388E-01 4.690063057724E-02 -7.433256233342E-03
C60 -3.320747295951E-01 -1.562430910796E-01 7.060949436276E-02
C61 -2.001713595451E-01 3.449138007435E-01 1.316052444895E-01
H62 -3.602647953934E-01 -3.723842722979E-01 1.399238382930E-01
H63 3.602647953934E-01 3.723842722979E-01 -1.399238382930E-01
C64 3.320747295951E-01 1.562430910796E-01 -7.060949436276E-02
C65 9.945171542659E-02 1.664934875096E-01 3.932387788467E-02
H66 3.404964378253E-02 -2.853808146308E-01 -2.650287822637E-01
C67 2.492267454419E-01 -2.102861429032E-01 -2.965989500930E-01
H68 3.896673216057E-01 -3.839529182471E-01 -1.344737830164E-02
C69 4.502674026762E-01 -2.682620820176E-01 -1.565902810709E-01
H70 -4.392047538447E-01 -8.601919625836E-02 1.071869583599E-01
C71 -1.506970880650E-01 2.807006250110E-01 2.341476188743E-01
C72 -3.508461894068E-01 3.366424692703E-01 9.346526115596E-02
H73 4.392047538447E-01 8.601919625836E-02 -1.071869583599E-01
C74 2.369352698304E-01 8.052204532245E-02 -5.134000387879E-03
H75 2.580029473591E-02 1.070051648446E-01 8.721437368631E-02
H76 2.089043105180E-01 -1.591331552804E-01 -3.753278202700E-01
C77 3.994942751768E-01 -2.045793983259E-01 -2.583717703171E-01
H78 -4.333640862923E-01 -2.640915977142E-01 -1.253683442847E-01
H79 -3.404964378253E-02 2.853808146308E-01 2.650287822637E-01
C80 -2.492267454419E-01 2.102861429032E-01 2.965989500930E-01
H81 -3.896673216057E-01 3.839529182471E-01 1.344737830164E-02
C82 -4.502674026762E-01 2.682620820176E-01 1.565902810709E-01
H83 2.730071214388E-01 -4.690063057725E-02 7.433256233342E-03
H84 4.759409477089E-01 -1.502319506695E-01 -3.077561129356E-01
H85 -2.089043105180E-01 1.591331552804E-01 3.753278202700E-01
C86 -3.994942751768E-01 2.045793983259E-01 2.583717703171E-01
H87 4.333640862923E-01 2.640915977142E-01 1.253683442847E-01
H88 -4.759409477089E-01 1.502319506695E-01 3.077561129356E-01


#===END
