###############################################################
#
#primitive cell cif file
#
###############################################################

DP910Aposm10_data

_symmetry_space_group_name_H-M 'P 1'
_cell_length_a      8.64136129
_cell_length_b      8.64136129
_cell_length_c      12.29000000
_cell_angle_alpha   89.628883
_cell_angle_beta    90.371117
_cell_angle_gamma   76.418725

loop_
_atom_site_label
_atom_site_fract_x
_atom_site_fract_y
_atom_site_fract_z
C1 -3.348102731664E-01 -4.442497123993E-02 -4.763199979265E-01
C2 -4.279724406276E-01 9.624674078256E-02 -4.314389747012E-01
C3 -1.667230748623E-01 -9.339572944036E-02 -4.574490518019E-01
C4 -4.075594531385E-01 -1.414935202642E-01 4.540400592707E-01
C5 4.075594531385E-01 1.414935202642E-01 -4.540400592707E-01
C6 -3.529433094136E-01 1.995519980058E-01 -3.622300050982E-01
H7 -1.103504763709E-01 -2.042178012704E-02 -4.066309540328E-01
C8 -7.693538206139E-02 -2.273541797108E-01 4.961311489821E-01
C9 4.279724406276E-01 -9.624674078256E-02 4.314389747012E-01
C10 -3.079368896221E-01 -2.802499151129E-01 4.069345258167E-01
C11 3.079368896221E-01 2.802499151129E-01 -4.069345258167E-01
C12 3.348102731664E-01 4.442497123993E-02 4.763199979265E-01
C13 -2.899165631636E-01 1.494124488304E-01 -2.594424149832E-01
C14 -3.442683616517E-01 3.504392258172E-01 -3.995911467524E-01
H15 5.034596977334E-02 -2.616403870972E-01 -4.900794468221E-01
C16 -1.484252230579E-01 -3.221406400222E-01 4.273333939307E-01
C17 3.529433094136E-01 -1.995519980058E-01 3.622300050982E-01
H18 -3.609810485102E-01 -3.527137237075E-01 3.535543821339E-01
H19 3.609810485102E-01 3.527137237075E-01 -3.535543821339E-01
C20 1.484252230579E-01 3.221406400222E-01 -4.273333939307E-01
C21 1.667230748623E-01 9.339572944036E-02 4.574490518019E-01
H22 -2.944154001978E-01 3.247962496407E-02 -2.292499204043E-01
C23 -2.191380740409E-01 2.472005089911E-01 -1.966032217981E-01
H24 -3.908781393752E-01 3.898448362855E-01 -4.797752474736E-01
C25 -2.755194509475E-01 4.490444907520E-01 -3.360260592634E-01
H26 -7.489551317244E-02 -4.266378357223E-01 3.897612722160E-01
C27 2.899165631636E-01 -1.494124488304E-01 2.594424149832E-01
C28 3.442683616517E-01 -3.504392258172E-01 3.995911467524E-01
H29 7.489551317244E-02 4.266378357223E-01 -3.897612722160E-01
C30 7.693538206139E-02 2.273541797108E-01 -4.961311489821E-01
H31 1.103504763709E-01 2.042178012704E-02 4.066309540328E-01
H32 -1.675057759422E-01 2.060299533839E-01 -1.181278505513E-01
C33 -2.123233893262E-01 3.972913855371E-01 -2.342380554369E-01
H34 -2.702361417873E-01 -4.345674458588E-01 -3.668256604805E-01
H35 2.944154001978E-01 -3.247962496407E-02 2.292499204043E-01
C36 2.191380740409E-01 -2.472005089911E-01 1.966032217981E-01
H37 3.908781393752E-01 -3.898448362855E-01 4.797752474736E-01
C38 2.755194509475E-01 -4.490444907520E-01 3.360260592634E-01
H39 -5.034596977334E-02 2.616403870972E-01 4.900794468221E-01
H40 -1.570107121214E-01 4.726819077687E-01 -1.847067328482E-01
H41 1.675057759422E-01 -2.060299533839E-01 1.181278505513E-01
C42 2.123233893262E-01 -3.972913855371E-01 2.342380554369E-01
H43 2.702361417873E-01 4.345674458588E-01 3.668256604805E-01
H44 1.570107121214E-01 -4.726819077687E-01 1.847067328482E-01
C45 -4.442497123994E-02 -3.348102731664E-01 -2.368000207355E-02
C46 9.624674078255E-02 -4.279724406276E-01 -6.856102529884E-02
C47 -9.339572944037E-02 -1.667230748623E-01 -4.255094819814E-02
C48 -1.414935202642E-01 -4.075594531385E-01 4.595994072933E-02
C49 1.414935202641E-01 4.075594531385E-01 -4.595994072933E-02
C50 1.995519980058E-01 -3.529433094136E-01 -1.377699949018E-01
H51 -2.042178012705E-02 -1.103504763709E-01 -9.336904596719E-02
C52 -2.273541797108E-01 -7.693538206138E-02 3.868851017935E-03
C53 -9.624674078257E-02 4.279724406276E-01 6.856102529884E-02
C54 -2.802499151129E-01 -3.079368896221E-01 9.306547418330E-02
C55 2.802499151129E-01 3.079368896221E-01 -9.306547418329E-02
C56 4.442497123992E-02 3.348102731664E-01 2.368000207355E-02
C57 1.494124488304E-01 -2.899165631636E-01 -2.405575850168E-01
C58 3.504392258172E-01 -3.442683616517E-01 -1.004088532476E-01
H59 -2.616403870972E-01 5.034596977335E-02 -9.920553177921E-03
C60 -3.221406400223E-01 -1.484252230579E-01 7.266660606931E-02
C61 -1.995519980058E-01 3.529433094136E-01 1.377699949018E-01
H62 -3.527137237075E-01 -3.609810485102E-01 1.464456178661E-01
H63 3.527137237075E-01 3.609810485102E-01 -1.464456178661E-01
C64 3.221406400222E-01 1.484252230579E-01 -7.266660606931E-02
C65 9.339572944036E-02 1.667230748623E-01 4.255094819814E-02
H66 3.247962496406E-02 -2.944154001978E-01 -2.707500795957E-01
C67 2.472005089911E-01 -2.191380740409E-01 -3.033967782019E-01
H68 3.898448362855E-01 -3.908781393752E-01 -2.022475252641E-02
C69 4.490444907520E-01 -2.755194509475E-01 -1.639739407366E-01
H70 -4.266378357223E-01 -7.489551317243E-02 1.102387277840E-01
C71 -1.494124488304E-01 2.899165631636E-01 2.405575850168E-01
C72 -3.504392258172E-01 3.442683616517E-01 1.004088532476E-01
H73 4.266378357223E-01 7.489551317244E-02 -1.102387277840E-01
C74 2.273541797108E-01 7.693538206140E-02 -3.868851017935E-03
H75 2.042178012703E-02 1.103504763709E-01 9.336904596719E-02
H76 2.060299533839E-01 -1.675057759422E-01 -3.818721494487E-01
C77 3.972913855371E-01 -2.123233893262E-01 -2.657619445631E-01
H78 -4.345674458588E-01 -2.702361417873E-01 -1.331743395195E-01
H79 -3.247962496408E-02 2.944154001978E-01 2.707500795957E-01
C80 -2.472005089911E-01 2.191380740409E-01 3.033967782019E-01
H81 -3.898448362855E-01 3.908781393752E-01 2.022475252641E-02
C82 -4.490444907521E-01 2.755194509475E-01 1.639739407366E-01
H83 2.616403870972E-01 -5.034596977333E-02 9.920553177921E-03
H84 4.726819077686E-01 -1.570107121214E-01 -3.152932671518E-01
H85 -2.060299533839E-01 1.675057759422E-01 3.818721494487E-01
C86 -3.972913855371E-01 2.123233893262E-01 2.657619445631E-01
H87 4.345674458588E-01 2.702361417873E-01 1.331743395195E-01
H88 -4.726819077687E-01 1.570107121214E-01 3.152932671518E-01


#===END
