###############################################################
#
#primitive cell cif file
#
###############################################################

DP910Aposm6_data

_symmetry_space_group_name_H-M 'P 1'
_cell_length_a      8.64136129
_cell_length_b      8.64136129
_cell_length_c      12.29000000
_cell_angle_alpha   89.628883
_cell_angle_beta    90.371117
_cell_angle_gamma   76.418725

loop_
_atom_site_label
_atom_site_fract_x
_atom_site_fract_y
_atom_site_fract_z
C1 -3.333661918664E-01 -4.791287413917E-02 -4.822841438812E-01
C2 -4.201383697542E-01 9.406821338618E-02 -4.351006300286E-01
C3 -1.645319253233E-01 -1.007413932347E-01 -4.692636263199E-01
C4 -4.139827112957E-01 -1.423793057906E-01 4.516144486066E-01
C5 4.139827112957E-01 1.423793057906E-01 -4.516144486066E-01
C6 -3.384698106675E-01 1.954065850932E-01 -3.688614101859E-01
H7 -1.022407780474E-01 -3.005713966126E-02 -4.209645231386E-01
C8 -8.116422437179E-02 -2.361559493030E-01 4.823849796179E-01
C9 4.201383697542E-01 -9.406821338618E-02 4.351006300286E-01
C10 -3.207486750583E-01 -2.820950133108E-01 4.016000015454E-01
C11 3.207486750583E-01 2.820950133108E-01 -4.016000015454E-01
C12 3.333661918664E-01 4.791287413917E-02 4.822841438812E-01
C13 -2.657733765204E-01 1.420667020065E-01 -2.692090426863E-01
C14 -3.358602250726E-01 3.487577669666E-01 -4.048606152860E-01
H15 4.674222422989E-02 -2.732997705552E-01 4.922173732834E-01
C16 -1.602475488539E-01 -3.279010597461E-01 4.166307181798E-01
C17 3.384698106675E-01 -1.954065850932E-01 3.688614101859E-01
H18 -3.794591366651E-01 -3.524489789386E-01 3.504840950413E-01
H19 3.794591366651E-01 3.524489789386E-01 -3.504840950413E-01
C20 1.602475488539E-01 3.279010597461E-01 -4.166307181798E-01
C21 1.645319253233E-01 1.007413932347E-01 4.692636263199E-01
H22 -2.667980836834E-01 2.377153313064E-02 -2.397168618799E-01
C23 -1.925359770686E-01 2.392818452650E-01 -2.075959567115E-01
H24 -3.896482002139E-01 3.907757479040E-01 -4.827829079812E-01
C25 -2.644839458731E-01 4.467946951906E-01 -3.426063167640E-01
H26 -9.219456516691E-02 -4.334352658035E-01 3.771741098097E-01
C27 2.657733765204E-01 -1.420667020065E-01 2.692090426863E-01
C28 3.358602250726E-01 -3.487577669666E-01 4.048606152860E-01
H29 9.219456516691E-02 4.334352658035E-01 -3.771741098097E-01
C30 8.116422437179E-02 2.361559493030E-01 -4.823849796179E-01
H31 1.022407780474E-01 3.005713966126E-02 4.209645231386E-01
H32 -1.351330334537E-01 1.964804126481E-01 -1.310048138991E-01
C33 -1.924402352653E-01 3.920992960587E-01 -2.436670905698E-01
H34 -2.642709811006E-01 -4.350113336704E-01 -3.724219071504E-01
H35 2.667980836834E-01 -2.377153313064E-02 2.397168618799E-01
C36 1.925359770686E-01 -2.392818452650E-01 2.075959567115E-01
H37 3.896482002139E-01 -3.907757479040E-01 4.827829079812E-01
C38 2.644839458731E-01 -4.467946951906E-01 3.426063167640E-01
H39 -4.674222422989E-02 2.732997705552E-01 -4.922173732834E-01
H40 -1.361182549954E-01 4.674346647531E-01 -1.947296528474E-01
H41 1.351330334537E-01 -1.964804126481E-01 1.310048138991E-01
C42 1.924402352653E-01 -3.920992960587E-01 2.436670905698E-01
H43 2.642709811006E-01 4.350113336704E-01 3.724219071504E-01
H44 1.361182549954E-01 -4.674346647531E-01 1.947296528474E-01
C45 -4.388282596308E-02 -3.347724438496E-01 -2.391817728044E-02
C46 9.752750783416E-02 -4.282489479289E-01 -6.756305954439E-02
C47 -9.240400231814E-02 -1.667851842493E-01 -4.318526693911E-02
C48 -1.419835121708E-01 -4.071652684787E-01 4.497036806754E-02
C49 1.419835121708E-01 4.071652684787E-01 -4.497036806754E-02
C50 2.020758193392E-01 -3.542184680309E-01 -1.364565587563E-01
H51 -1.836762702311E-02 -1.110173894626E-01 -9.357628109268E-02
C52 -2.269240168417E-01 -7.641817480515E-02 2.358997580923E-03
C53 -9.752750783416E-02 4.282489479289E-01 6.756305954439E-02
C54 -2.807936364191E-01 -3.069670747827E-01 9.173488035894E-02
C55 2.807936364191E-01 3.069670747827E-01 -9.173488035894E-02
C56 4.388282596308E-02 3.347724438496E-01 2.391817728044E-02
C57 1.536317748256E-01 -2.938177253186E-01 -2.401804404910E-01
C58 3.524077733472E-01 -3.449768268273E-01 -9.827239747550E-02
H59 -2.608905315240E-01 5.078384294682E-02 -1.223773314913E-02
C60 -3.222210416919E-01 -1.473568786780E-01 7.126127587839E-02
C61 -2.020758193392E-01 3.542184680309E-01 1.364565587563E-01
H62 -3.534612138742E-01 -3.598184718927E-01 1.450854661098E-01
H63 3.534612138742E-01 3.598184718927E-01 -1.450854661098E-01
C64 3.222210416919E-01 1.473568786780E-01 -7.126127587839E-02
C65 9.240400231814E-02 1.667851842493E-01 4.318526693911E-02
H66 3.681651664402E-02 -2.982558452577E-01 -2.707062198423E-01
C67 2.530957349475E-01 -2.262363967796E-01 -3.038431917461E-01
H68 3.898796733097E-01 -3.889019874779E-01 -1.710996067775E-02
C69 4.527799242557E-01 -2.794355726951E-01 -1.625902479853E-01
H70 -4.267479677377E-01 -7.356151968310E-02 1.087623495547E-01
C71 -1.536317748256E-01 2.938177253186E-01 2.401804404910E-01
C72 -3.524077733472E-01 3.449768268273E-01 9.827239747550E-02
H73 4.267479677377E-01 7.356151968310E-02 -1.087623495547E-01
C74 2.269240168417E-01 7.641817480515E-02 -2.358997580923E-03
H75 1.836762702311E-02 1.110173894626E-01 9.357628109268E-02
H76 2.132954939453E-01 -1.772874233468E-01 -3.832687100877E-01
C77 4.030642161723E-01 -2.196113124414E-01 -2.656428195715E-01
H78 -4.310099630609E-01 -2.740338656879E-01 -1.315825283869E-01
H79 -3.681651664402E-02 2.982558452577E-01 2.707062198423E-01
C80 -2.530957349475E-01 2.262363967796E-01 3.038431917461E-01
H81 -3.898796733097E-01 3.889019874779E-01 1.710996067775E-02
C82 -4.527799242557E-01 2.794355726951E-01 1.625902479853E-01
H83 2.608905315240E-01 -5.078384294682E-02 1.223773314913E-02
H84 4.799535842025E-01 -1.668312568123E-01 -3.156985642361E-01
H85 -2.132954939453E-01 1.772874233468E-01 3.832687100877E-01
C86 -4.030642161723E-01 2.196113124414E-01 2.656428195715E-01
H87 4.310099630609E-01 2.740338656879E-01 1.315825283869E-01
H88 -4.799535842025E-01 1.668312568123E-01 3.156985642361E-01


#===END
