###############################################################
#
#primitive cell cif file
#
###############################################################

DP910Anegm7_data

_symmetry_space_group_name_H-M 'P 1'
_cell_length_a      8.64136129
_cell_length_b      8.64136129
_cell_length_c      12.29000000
_cell_angle_alpha   89.628883
_cell_angle_beta    90.371117
_cell_angle_gamma   76.418725

loop_
_atom_site_label
_atom_site_fract_x
_atom_site_fract_y
_atom_site_fract_z
C1 -3.335507884878E-01 -4.258968411203E-02 -4.799075045389E-01
C2 -4.257480162981E-01 9.843682129439E-02 -4.349357935353E-01
C3 -1.650039752891E-01 -9.051889106600E-02 -4.639282225129E-01
C4 -4.085191003956E-01 -1.410077315303E-01 4.533426397728E-01
C5 4.085191003956E-01 1.410077315303E-01 -4.533426397728E-01
C6 -3.498852558982E-01 2.050244593647E-01 -3.689585705602E-01
H7 -1.071140032362E-01 -1.711787820729E-02 -4.146075489813E-01
C8 -7.644716258445E-02 -2.249113525223E-01 4.894000597501E-01
C9 4.257480162981E-01 -9.843682129439E-02 4.349357935353E-01
C10 -3.099227244153E-01 -2.788950079629E-01 4.044650389353E-01
C11 3.099227244153E-01 2.788950079629E-01 -4.044650389353E-01
C12 3.335507884878E-01 4.258968411203E-02 4.799075045389E-01
C13 -2.832808682063E-01 1.580299060467E-01 -2.667393910342E-01
C14 -3.452635021052E-01 3.559541290242E-01 -4.087157142855E-01
H15 5.110038233728E-02 -2.590580406423E-01 -4.980667909627E-01
C16 -1.495880464123E-01 -3.198438964914E-01 4.218108373834E-01
C17 3.498852558982E-01 -2.050244593647E-01 3.689585705602E-01
H18 -3.645671079022E-01 -3.516456783343E-01 3.523736259640E-01
H19 3.645671079022E-01 3.516456783343E-01 -3.523736259640E-01
C20 1.495880464123E-01 3.198438964914E-01 -4.218108373834E-01
C21 1.650039752891E-01 9.051889106600E-02 4.639282225129E-01
H22 -2.842397918255E-01 4.079753213312E-02 -2.350269573011E-01
C23 -2.149461291101E-01 2.597608420843E-01 -2.055794274691E-01
H24 -3.936690999399E-01 3.923170143775E-01 -4.888503750519E-01
C25 -2.784230682997E-01 4.583778190459E-01 -3.471666726584E-01
H26 -7.724245615248E-02 -4.240158095444E-01 3.832295124562E-01
C27 2.832808682063E-01 -1.580299060467E-01 2.667393910342E-01
C28 3.452635021052E-01 -3.559541290242E-01 4.087157142855E-01
H29 7.724245615248E-02 4.240158095444E-01 -3.832295124562E-01
C30 7.644716258445E-02 2.249113525223E-01 -4.894000597501E-01
H31 1.071140032362E-01 1.711787820729E-02 4.146075489813E-01
H32 -1.617171905782E-01 2.216018155106E-01 -1.270963134675E-01
C33 -2.132029899542E-01 4.104510081846E-01 -2.453120110769E-01
H34 -2.763160757753E-01 -4.254017426825E-01 -3.796107203016E-01
H35 2.842397918255E-01 -4.079753213312E-02 2.350269573011E-01
C36 2.149461291101E-01 -2.597608420843E-01 2.055794274691E-01
H37 3.936690999399E-01 -3.923170143775E-01 4.888503750519E-01
C38 2.784230682997E-01 -4.583778190459E-01 3.471666726584E-01
H39 -5.110038233728E-02 2.590580406423E-01 4.980667909627E-01
H40 -1.602791213324E-01 4.891896724991E-01 -1.969172201197E-01
H41 1.617171905782E-01 -2.216018155106E-01 1.270963134675E-01
C42 2.132029899542E-01 -4.104510081846E-01 2.453120110769E-01
H43 2.763160757753E-01 4.254017426825E-01 3.796107203016E-01
H44 1.602791213324E-01 -4.891896724991E-01 1.969172201197E-01
C45 -4.258968411204E-02 -3.335507884878E-01 -2.009249546114E-02
C46 9.843682129438E-02 -4.257480162981E-01 -6.506420646472E-02
C47 -9.051889106601E-02 -1.650039752891E-01 -3.607177748708E-02
C48 -1.410077315303E-01 -4.085191003956E-01 4.665736022721E-02
C49 1.410077315303E-01 4.085191003956E-01 -4.665736022721E-02
C50 2.050244593647E-01 -3.498852558982E-01 -1.310414294398E-01
H51 -1.711787820730E-02 -1.071140032361E-01 -8.539245101868E-02
C52 -2.249113525223E-01 -7.644716258444E-02 1.059994024989E-02
C53 -9.843682129440E-02 4.257480162981E-01 6.506420646472E-02
C54 -2.788950079629E-01 -3.099227244153E-01 9.553496106469E-02
C55 2.788950079629E-01 3.099227244153E-01 -9.553496106469E-02
C56 4.258968411202E-02 3.335507884878E-01 2.009249546114E-02
C57 1.580299060467E-01 -2.832808682063E-01 -2.332606089658E-01
C58 3.559541290242E-01 -3.452635021052E-01 -9.128428571448E-02
H59 -2.590580406423E-01 5.110038233729E-02 -1.933209037345E-03
C60 -3.198438964914E-01 -1.495880464123E-01 7.818916261659E-02
C61 -2.050244593647E-01 3.498852558982E-01 1.310414294398E-01
H62 -3.516456783344E-01 -3.645671079022E-01 1.476263740360E-01
H63 3.516456783343E-01 3.645671079022E-01 -1.476263740360E-01
C64 3.198438964914E-01 1.495880464123E-01 -7.818916261659E-02
C65 9.051889106600E-02 1.650039752891E-01 3.607177748708E-02
H66 4.079753213311E-02 -2.842397918255E-01 -2.649730426989E-01
C67 2.597608420843E-01 -2.149461291101E-01 -2.944205725309E-01
H68 3.923170143775E-01 -3.936690999399E-01 -1.114962494808E-02
C69 4.583778190459E-01 -2.784230682997E-01 -1.528333273416E-01
H70 -4.240158095444E-01 -7.724245615247E-02 1.167704875438E-01
C71 -1.580299060467E-01 2.832808682063E-01 2.332606089658E-01
C72 -3.559541290242E-01 3.452635021052E-01 9.128428571448E-02
H73 4.240158095444E-01 7.724245615249E-02 -1.167704875438E-01
C74 2.249113525223E-01 7.644716258446E-02 -1.059994024989E-02
H75 1.711787820728E-02 1.071140032362E-01 8.539245101868E-02
H76 2.216018155106E-01 -1.617171905782E-01 -3.729036865325E-01
C77 4.104510081846E-01 -2.132029899542E-01 -2.546879889231E-01
H78 -4.254017426825E-01 -2.763160757752E-01 -1.203892796984E-01
H79 -4.079753213313E-02 2.842397918255E-01 2.649730426989E-01
C80 -2.597608420843E-01 2.149461291101E-01 2.944205725309E-01
H81 -3.923170143775E-01 3.936690999400E-01 1.114962494808E-02
C82 -4.583778190459E-01 2.784230682997E-01 1.528333273416E-01
H83 2.590580406423E-01 -5.110038233727E-02 1.933209037345E-03
H84 4.891896724991E-01 -1.602791213324E-01 -3.030827798803E-01
H85 -2.216018155106E-01 1.617171905782E-01 3.729036865325E-01
C86 -4.104510081847E-01 2.132029899542E-01 2.546879889231E-01
H87 4.254017426825E-01 2.763160757753E-01 1.203892796984E-01
H88 -4.891896724991E-01 1.602791213324E-01 3.030827798803E-01


#===END
