###############################################################
#
#primitive cell cif file
#
###############################################################

DP910Aposm26_data

_symmetry_space_group_name_H-M 'P 1'
_cell_length_a      8.64136129
_cell_length_b      8.64136129
_cell_length_c      12.29000000
_cell_angle_alpha   89.628883
_cell_angle_beta    90.371117
_cell_angle_gamma   76.418725

loop_
_atom_site_label
_atom_site_fract_x
_atom_site_fract_y
_atom_site_fract_z
C1 -3.342007431354E-01 -4.504112713308E-02 -4.792270769965E-01
C2 -4.249819189974E-01 9.601158268132E-02 -4.335566777066E-01
C3 -1.657991364788E-01 -9.477571646478E-02 -4.629484123031E-01
C4 -4.099399174531E-01 -1.417333629563E-01 4.531106078953E-01
C5 4.099399174531E-01 1.417333629563E-01 -4.531106078953E-01
C6 -3.469092223152E-01 1.987513515374E-01 -3.660760323781E-01
H7 -1.073777883591E-01 -2.248642055841E-02 -4.130815163619E-01
C8 -7.833460148242E-02 -2.290233524631E-01 4.897009267534E-01
C9 4.249819189974E-01 -9.601158268132E-02 4.335566777066E-01
C10 -3.128080770930E-01 -2.806467791517E-01 4.047107074873E-01
C11 3.128080770930E-01 2.806467791517E-01 -4.047107074873E-01
C12 3.342007431354E-01 4.504112713308E-02 4.792270769965E-01
C13 -2.838115520033E-01 1.490442526457E-01 -2.632770410885E-01
C14 -3.355828703344E-01 3.482451898870E-01 -4.048625154036E-01
H15 4.920555787995E-02 -2.639803494640E-01 -4.981405759635E-01
C16 -1.526872343987E-01 -3.230885156514E-01 4.223209948491E-01
C17 3.469092223152E-01 -1.987513515374E-01 3.660760323781E-01
H18 -3.683763330209E-01 -3.527371068019E-01 3.527279831483E-01
H19 3.683763330209E-01 3.527371068019E-01 -3.527279831483E-01
C20 1.526872343987E-01 3.230885156514E-01 -4.223209948491E-01
C21 1.657991364788E-01 9.477571646478E-02 4.629484123031E-01
H22 -2.906071149534E-01 3.314445291979E-02 -2.320759169954E-01
C23 -2.102777731989E-01 2.458716319027E-01 -2.015827450216E-01
H24 -3.826205020271E-01 3.873604878848E-01 -4.849548875891E-01
C25 -2.638668653478E-01 4.459244755291E-01 -3.424818572759E-01
H26 -8.116991027590E-02 -4.278551456334E-01 3.839554595543E-01
C27 2.838115520033E-01 -1.490442526457E-01 2.632770410885E-01
C28 3.355828703344E-01 -3.482451898870E-01 4.048625154036E-01
H29 8.116991027590E-02 4.278551456334E-01 -3.839554595543E-01
C30 7.833460148242E-02 2.290233524631E-01 -4.897009267534E-01
H31 1.073777883591E-01 2.248642055841E-02 4.130815163619E-01
H32 -1.593081987919E-01 2.052415757522E-01 -1.228404677875E-01
C33 -2.005471897054E-01 3.946649969811E-01 -2.406874995240E-01
H34 -2.567940199371E-01 -4.386301570031E-01 -3.742113970638E-01
H35 2.906071149534E-01 -3.314445291979E-02 2.320759169954E-01
C36 2.102777731989E-01 -2.458716319027E-01 2.015827450216E-01
H37 3.826205020271E-01 -3.873604878848E-01 4.849548875891E-01
C38 2.638668653478E-01 -4.459244755291E-01 3.424818572759E-01
H39 -4.920555787995E-02 2.639803494640E-01 4.981405759635E-01
H40 -1.435662714920E-01 4.696140994402E-01 -1.919018984954E-01
H41 1.593081987919E-01 -2.052415757522E-01 1.228404677875E-01
C42 2.005471897054E-01 -3.946649969811E-01 2.406874995240E-01
H43 2.567940199371E-01 4.386301570031E-01 3.742113970638E-01
H44 1.435662714920E-01 -4.696140994402E-01 1.919018984954E-01
C45 -4.504112713309E-02 -3.342007431354E-01 -2.077292300350E-02
C46 9.601158268131E-02 -4.249819189974E-01 -6.644332229340E-02
C47 -9.477571646479E-02 -1.657991364788E-01 -3.705158769692E-02
C48 -1.417333629563E-01 -4.099399174531E-01 4.688939210475E-02
C49 1.417333629563E-01 4.099399174531E-01 -4.688939210475E-02
C50 1.987513515374E-01 -3.469092223152E-01 -1.339239676219E-01
H51 -2.248642055842E-02 -1.073777883591E-01 -8.691848363808E-02
C52 -2.290233524631E-01 -7.833460148241E-02 1.029907324660E-02
C53 -9.601158268133E-02 4.249819189974E-01 6.644332229340E-02
C54 -2.806467791517E-01 -3.128080770930E-01 9.528929251268E-02
C55 2.806467791517E-01 3.128080770930E-01 -9.528929251268E-02
C56 4.504112713307E-02 3.342007431354E-01 2.077292300350E-02
C57 1.490442526457E-01 -2.838115520033E-01 -2.367229589115E-01
C58 3.482451898870E-01 -3.355828703344E-01 -9.513748459641E-02
H59 -2.639803494641E-01 4.920555787996E-02 -1.859424036527E-03
C60 -3.230885156514E-01 -1.526872343986E-01 7.767900515095E-02
C61 -1.987513515374E-01 3.469092223152E-01 1.339239676219E-01
H62 -3.527371068019E-01 -3.683763330209E-01 1.472720168517E-01
H63 3.527371068019E-01 3.683763330210E-01 -1.472720168517E-01
C64 3.230885156514E-01 1.526872343987E-01 -7.767900515095E-02
C65 9.477571646477E-02 1.657991364788E-01 3.705158769692E-02
H66 3.314445291978E-02 -2.906071149534E-01 -2.679240830046E-01
C67 2.458716319027E-01 -2.102777731988E-01 -2.984172549784E-01
H68 3.873604878848E-01 -3.826205020271E-01 -1.504511241087E-02
C69 4.459244755291E-01 -2.638668653478E-01 -1.575181427241E-01
H70 -4.278551456334E-01 -8.116991027589E-02 1.160445404457E-01
C71 -1.490442526457E-01 2.838115520033E-01 2.367229589115E-01
C72 -3.482451898870E-01 3.355828703344E-01 9.513748459641E-02
H73 4.278551456334E-01 8.116991027591E-02 -1.160445404457E-01
C74 2.290233524631E-01 7.833460148243E-02 -1.029907324660E-02
H75 2.248642055840E-02 1.073777883591E-01 8.691848363808E-02
H76 2.052415757522E-01 -1.593081987919E-01 -3.771595322125E-01
C77 3.946649969811E-01 -2.005471897054E-01 -2.593125004760E-01
H78 -4.386301570031E-01 -2.567940199371E-01 -1.257886029362E-01
H79 -3.314445291980E-02 2.906071149534E-01 2.679240830046E-01
C80 -2.458716319027E-01 2.102777731989E-01 2.984172549784E-01
H81 -3.873604878848E-01 3.826205020271E-01 1.504511241087E-02
C82 -4.459244755291E-01 2.638668653478E-01 1.575181427241E-01
H83 2.639803494640E-01 -4.920555787995E-02 1.859424036527E-03
H84 4.696140994402E-01 -1.435662714920E-01 -3.080981015046E-01
H85 -2.052415757522E-01 1.593081987919E-01 3.771595322125E-01
C86 -3.946649969811E-01 2.005471897054E-01 2.593125004760E-01
H87 4.386301570031E-01 2.567940199371E-01 1.257886029362E-01
H88 -4.696140994402E-01 1.435662714921E-01 3.080981015046E-01


#===END
