###############################################################
#
#primitive cell cif file
#
###############################################################

DP910Anegm15_data

_symmetry_space_group_name_H-M 'P 1'
_cell_length_a      8.64136129
_cell_length_b      8.64136129
_cell_length_c      12.29000000
_cell_angle_alpha   89.628883
_cell_angle_beta    90.371117
_cell_angle_gamma   76.418725

loop_
_atom_site_label
_atom_site_fract_x
_atom_site_fract_y
_atom_site_fract_z
C1 -3.332827166094E-01 -4.469164325203E-02 -4.815687467827E-01
C2 -4.236521863778E-01 9.474859162725E-02 -4.335154958063E-01
C3 -1.644323191469E-01 -9.422186039818E-02 -4.677155984810E-01
C4 -4.104640467349E-01 -1.397602924808E-01 4.505540797622E-01
C5 4.104640467349E-01 1.397602924808E-01 -4.505540797622E-01
C6 -3.462340425519E-01 1.973246266313E-01 -3.652599979521E-01
H7 -1.049997531356E-01 -2.295936854213E-02 -4.177247949466E-01
C8 -7.778561763847E-02 -2.271881979462E-01 4.827957240543E-01
C9 4.236521863778E-01 -9.474859162725E-02 4.335154958063E-01
C10 -3.140428220786E-01 -2.768235993865E-01 3.994622429091E-01
C11 3.140428220786E-01 2.768235993865E-01 -3.994622429091E-01
C12 3.332827166094E-01 4.469164325203E-02 4.815687467827E-01
C13 -2.807330970324E-01 1.458515714806E-01 -2.634565803050E-01
C14 -3.408236587784E-01 3.496049979818E-01 -4.017221878267E-01
H15 5.002564125517E-02 -2.624195645126E-01 4.937023799861E-01
C16 -1.534324647507E-01 -3.195273539780E-01 4.149336533585E-01
C17 3.462340425519E-01 -1.973246266313E-01 3.652599979521E-01
H18 -3.706606107963E-01 -3.476177348277E-01 3.472395372276E-01
H19 3.706606107963E-01 3.476177348277E-01 -3.472395372276E-01
C20 1.534324647507E-01 3.195273539780E-01 -4.149336533585E-01
C21 1.644323191469E-01 9.422186039818E-02 4.677155984810E-01
H22 -2.829612935836E-01 2.780372741875E-02 -2.342090034814E-01
C23 -2.127531437915E-01 2.447267783501E-01 -1.995576403180E-01
H24 -3.889409581483E-01 3.895143945247E-01 -4.814457101739E-01
C25 -2.739218640617E-01 4.490081292526E-01 -3.375066567517E-01
H26 -8.288767012782E-02 -4.230177178162E-01 3.745593720388E-01
C27 2.807330970324E-01 -1.458515714806E-01 2.634565803050E-01
C28 3.408236587784E-01 -3.496049979818E-01 4.017221878267E-01
H29 8.288767012782E-02 4.230177178162E-01 -3.745593720388E-01
C30 7.778561763847E-02 2.271881979462E-01 -4.827957240543E-01
H31 1.049997531356E-01 2.295936854213E-02 4.177247949466E-01
H32 -1.607529860561E-01 2.034484369243E-01 -1.212747928277E-01
C33 -2.098726978267E-01 3.966125268603E-01 -2.359908358895E-01
H34 -2.708575747262E-01 -4.336033724019E-01 -3.675645439877E-01
H35 2.829612935836E-01 -2.780372741875E-02 2.342090034814E-01
C36 2.127531437915E-01 -2.447267783501E-01 1.995576403180E-01
H37 3.889409581483E-01 -3.895143945247E-01 4.814457101739E-01
C38 2.739218640617E-01 -4.490081292526E-01 3.375066567517E-01
H39 -5.002564125517E-02 2.624195645126E-01 -4.937023799861E-01
H40 -1.568984932675E-01 4.729907722342E-01 -1.855970602441E-01
H41 1.607529860561E-01 -2.034484369243E-01 1.212747928277E-01
C42 2.098726978267E-01 -3.966125268603E-01 2.359908358895E-01
H43 2.708575747262E-01 4.336033724019E-01 3.675645439877E-01
H44 1.568984932675E-01 -4.729907722342E-01 1.855970602441E-01
C45 -4.469164325204E-02 -3.332827166094E-01 -1.843125321733E-02
C46 9.474859162724E-02 -4.236521863778E-01 -6.648450419373E-02
C47 -9.422186039818E-02 -1.644323191469E-01 -3.228440151904E-02
C48 -1.397602924808E-01 -4.104640467349E-01 4.944592023780E-02
C49 1.397602924808E-01 4.104640467350E-01 -4.944592023780E-02
C50 1.973246266313E-01 -3.462340425519E-01 -1.347400020479E-01
H51 -2.295936854214E-02 -1.049997531356E-01 -8.227520505336E-02
C52 -2.271881979462E-01 -7.778561763846E-02 1.720427594566E-02
C53 -9.474859162726E-02 4.236521863778E-01 6.648450419373E-02
C54 -2.768235993865E-01 -3.140428220786E-01 1.005377570909E-01
C55 2.768235993865E-01 3.140428220786E-01 -1.005377570909E-01
C56 4.469164325202E-02 3.332827166094E-01 1.843125321733E-02
C57 1.458515714806E-01 -2.807330970324E-01 -2.365434196950E-01
C58 3.496049979818E-01 -3.408236587784E-01 -9.827781217328E-02
H59 -2.624195645126E-01 5.002564125518E-02 6.297620013866E-03
C60 -3.195273539780E-01 -1.534324647507E-01 8.506634664147E-02
C61 -1.973246266313E-01 3.462340425519E-01 1.347400020479E-01
H62 -3.476177348277E-01 -3.706606107963E-01 1.527604627724E-01
H63 3.476177348277E-01 3.706606107963E-01 -1.527604627724E-01
C64 3.195273539780E-01 1.534324647508E-01 -8.506634664147E-02
C65 9.422186039817E-02 1.644323191469E-01 3.228440151904E-02
H66 2.780372741874E-02 -2.829612935835E-01 -2.657909965186E-01
C67 2.447267783501E-01 -2.127531437915E-01 -3.004423596820E-01
H68 3.895143945247E-01 -3.889409581483E-01 -1.855428982612E-02
C69 4.490081292526E-01 -2.739218640617E-01 -1.624933432483E-01
H70 -4.230177178162E-01 -8.288767012781E-02 1.254406279612E-01
C71 -1.458515714806E-01 2.807330970324E-01 2.365434196950E-01
C72 -3.496049979818E-01 3.408236587785E-01 9.827781217328E-02
H73 4.230177178162E-01 8.288767012783E-02 -1.254406279612E-01
C74 2.271881979462E-01 7.778561763848E-02 -1.720427594566E-02
H75 2.295936854212E-02 1.049997531356E-01 8.227520505336E-02
H76 2.034484369242E-01 -1.607529860561E-01 -3.787252071723E-01
C77 3.966125268603E-01 -2.098726978267E-01 -2.640091641105E-01
H78 -4.336033724019E-01 -2.708575747262E-01 -1.324354560123E-01
H79 -2.780372741876E-02 2.829612935836E-01 2.657909965186E-01
C80 -2.447267783501E-01 2.127531437915E-01 3.004423596820E-01
H81 -3.895143945248E-01 3.889409581483E-01 1.855428982612E-02
C82 -4.490081292526E-01 2.739218640617E-01 1.624933432483E-01
H83 2.624195645126E-01 -5.002564125516E-02 -6.297620013866E-03
H84 4.729907722342E-01 -1.568984932675E-01 -3.144029397559E-01
H85 -2.034484369243E-01 1.607529860561E-01 3.787252071723E-01
C86 -3.966125268603E-01 2.098726978267E-01 2.640091641105E-01
H87 4.336033724019E-01 2.708575747262E-01 1.324354560123E-01
H88 -4.729907722342E-01 1.568984932675E-01 3.144029397559E-01


#===END
