###############################################################
#
#primitive cell cif file
#
###############################################################

DP910Anegm12_data

_symmetry_space_group_name_H-M 'P 1'
_cell_length_a      8.64136129
_cell_length_b      8.64136129
_cell_length_c      12.29000000
_cell_angle_alpha   89.628883
_cell_angle_beta    90.371117
_cell_angle_gamma   76.418725

loop_
_atom_site_label
_atom_site_fract_x
_atom_site_fract_y
_atom_site_fract_z
C1 -3.299181066483E-01 -4.809382832344E-02 -4.781426867937E-01
C2 -4.197363610980E-01 9.456868057852E-02 -4.336298652922E-01
C3 -1.618042744892E-01 -1.002184246026E-01 -4.610421926660E-01
C4 -4.065544801316E-01 -1.444487116702E-01 4.544475385383E-01
C5 4.145934996429E-01 1.399141062911E-01 -4.521965420007E-01
C6 -3.427958399981E-01 2.003720980930E-01 -3.678742243953E-01
H7 -1.023454941997E-01 -2.790656310915E-02 -4.119930846311E-01
C8 -7.580561472844E-02 -2.371069412341E-01 4.937171289816E-01
C9 4.286509565851E-01 -9.702704064182E-02 4.339077051921E-01
C10 -3.106482513319E-01 -2.854657850649E-01 4.075789719653E-01
C11 3.170674985091E-01 2.774228646650E-01 -4.022861492212E-01
C12 3.382205290677E-01 4.370187177881E-02 4.802232798071E-01
C13 -2.728586337147E-01 1.525284284165E-01 -2.665787118760E-01
C14 -3.443212631420E-01 3.540300533898E-01 -4.056921747145E-01
H15 5.142230266462E-02 -2.740908402016E-01 -4.929913145741E-01
C16 -1.510502924414E-01 -3.309427903960E-01 4.268633182623E-01
C17 3.498924387003E-01 -1.971103063395E-01 3.645306270344E-01
H18 -3.669412412878E-01 -3.571436335557E-01 3.557989409710E-01
H19 3.723363672700E-01 3.487665592571E-01 -3.495996879605E-01
C20 1.565541350905E-01 3.191793110420E-01 -4.185061240391E-01
C21 1.695128350835E-01 9.292697095024E-02 4.650361667148E-01
H22 -2.698277992333E-01 3.377462601161E-02 -2.357973108956E-01
C23 -2.076494920261E-01 2.558871769307E-01 -2.046313485496E-01
H24 -3.956758156027E-01 3.915162908120E-01 -4.849815028437E-01
C25 -2.813990158528E-01 4.583149172787E-01 -3.430690391059E-01
H26 -8.070611559663E-02 -4.378797191663E-01 3.900998371684E-01
C27 2.867324681242E-01 -1.431700484157E-01 2.624498903193E-01
C28 3.365157887578E-01 -3.471354869240E-01 4.008960430960E-01
H29 8.504996925338E-02 4.223035143749E-01 -3.783119230866E-01
C30 8.177678444850E-02 2.259730249106E-01 -4.863088530554E-01
H31 1.109126733103E-01 2.051820357522E-02 4.153951574148E-01
H32 -1.524449885769E-01 2.168918247140E-01 -1.267816602818E-01
C33 -2.130765671082E-01 4.094419849300E-01 -2.421176183833E-01
H34 -2.852172747602E-01 -4.229674992479E-01 -3.736599174536E-01
H35 2.952261297078E-01 -2.681342376306E-02 2.332133311419E-01
C36 2.111228818221E-01 -2.364904032819E-01 1.991214164159E-01
H37 3.828743720891E-01 -3.891391304018E-01 4.806914444597E-01
C38 2.625205027154E-01 -4.412597021676E-01 3.369470296728E-01
H39 -4.610376451209E-02 2.600994618776E-01 -4.974464210067E-01
H40 -1.635817261398E-01 4.898133446240E-01 -1.927227243397E-01
H41 1.599754682236E-01 -1.928840818794E-01 1.209544435296E-01
C42 1.989749805985E-01 -3.857215273010E-01 2.359066526150E-01
H43 2.530875720284E-01 4.430537974834E-01 3.671794613099E-01
H44 1.393677856679E-01 -4.575749043316E-01 1.863083642717E-01
C45 -4.370187177882E-02 -3.382205290677E-01 -1.977672019290E-02
C46 9.702704064181E-02 -4.286509565851E-01 -6.609229480790E-02
C47 -9.292697095025E-02 -1.695128350835E-01 -3.496383328524E-02
C48 -1.399141062911E-01 -4.145934996429E-01 4.780345799930E-02
C49 1.444487116702E-01 4.065544801316E-01 -4.555246146167E-02
C50 1.971103063395E-01 -3.498924387003E-01 -1.354693729656E-01
H51 -2.051820357523E-02 -1.109126733103E-01 -8.460484258516E-02
C52 -2.259730249106E-01 -8.177678444849E-02 1.369114694459E-02
C53 -9.456868057853E-02 4.197363610980E-01 6.637013470785E-02
C54 -2.774228646650E-01 -3.170674985091E-01 9.771385077879E-02
C55 2.854657850648E-01 3.106482513319E-01 -9.242102803471E-02
C56 4.809382832343E-02 3.299181066483E-01 2.185731320631E-02
C57 1.431700484157E-01 -2.867324681242E-01 -2.375501096807E-01
C58 3.471354869240E-01 -3.365157887578E-01 -9.910395690397E-02
H59 -2.600994618776E-01 4.610376451210E-02 2.553578993324E-03
C60 -3.191793110420E-01 -1.565541350905E-01 8.149387596088E-02
C61 -2.003720980930E-01 3.427958399981E-01 1.321257756047E-01
H62 -3.487665592572E-01 -3.723363672699E-01 1.504003120395E-01
H63 3.571436335557E-01 3.669412412878E-01 -1.442010590290E-01
C64 3.309427903960E-01 1.510502924414E-01 -7.313668173775E-02
C65 1.002184246026E-01 1.618042744892E-01 3.895780733400E-02
H66 2.681342376305E-02 -2.952261297078E-01 -2.667866688581E-01
C67 2.364904032819E-01 -2.111228818221E-01 -3.008785835841E-01
H68 3.891391304018E-01 -3.828743720891E-01 -1.930855554031E-02
C69 4.412597021675E-01 -2.625205027154E-01 -1.630529703272E-01
H70 -4.223035143749E-01 -8.504996925337E-02 1.216880769134E-01
C71 -1.525284284165E-01 2.728586337147E-01 2.334212881240E-01
C72 -3.540300533898E-01 3.443212631421E-01 9.430782528555E-02
H73 4.378797191662E-01 8.070611559664E-02 -1.099001628316E-01
C74 2.371069412341E-01 7.580561472845E-02 -6.282871018437E-03
H75 2.790656310914E-02 1.023454941997E-01 8.800691536892E-02
H76 1.928840818794E-01 -1.599754682236E-01 -3.790455564704E-01
C77 3.857215273010E-01 -1.989749805985E-01 -2.640933473850E-01
H78 -4.430537974834E-01 -2.530875720283E-01 -1.328205386901E-01
H79 -3.377462601162E-02 2.698277992333E-01 2.642026891044E-01
C80 -2.558871769307E-01 2.076494920261E-01 2.953686514504E-01
H81 -3.915162908120E-01 3.956758156027E-01 1.501849715627E-02
C82 -4.583149172787E-01 2.813990158528E-01 1.569309608941E-01
H83 2.740908402016E-01 -5.142230266461E-02 7.008685425858E-03
H84 4.575749043316E-01 -1.393677856679E-01 -3.136916357283E-01
H85 -2.168918247140E-01 1.524449885769E-01 3.732183397182E-01
C86 -4.094419849300E-01 2.130765671082E-01 2.578823816167E-01
H87 4.229674992479E-01 2.852172747602E-01 1.263400825464E-01
H88 -4.898133446240E-01 1.635817261398E-01 3.072772756603E-01


#===END
