###############################################################
#
#primitive cell cif file
#
###############################################################

DP910Anegm18_data

_symmetry_space_group_name_H-M 'P 1'
_cell_length_a      8.64136129
_cell_length_b      8.64136129
_cell_length_c      12.29000000
_cell_angle_alpha   89.628883
_cell_angle_beta    90.371117
_cell_angle_gamma   76.418725

loop_
_atom_site_label
_atom_site_fract_x
_atom_site_fract_y
_atom_site_fract_z
C1 -3.343083344679E-01 -4.393804924286E-02 -4.778271918341E-01
C2 -4.267165497623E-01 9.728422601689E-02 -4.329844645735E-01
C3 -1.658900750274E-01 -9.250735976056E-02 -4.605791592533E-01
C4 -4.082807824926E-01 -1.417229226249E-01 4.539966898847E-01
C5 4.082807824926E-01 1.417229226249E-01 -4.539966898847E-01
C6 -3.496295532531E-01 2.010607987569E-01 -3.655529618458E-01
H7 -1.083161679135E-01 -1.902576531835E-02 -4.111625309934E-01
C8 -7.691803254623E-02 -2.271932170947E-01 4.934345021229E-01
C9 4.267165497623E-01 -9.728422601689E-02 4.329844645735E-01
C10 -3.092674066424E-01 -2.805976662909E-01 4.066543493171E-01
C11 3.092674066424E-01 2.805976662909E-01 -4.066543493171E-01
C12 3.343083344679E-01 4.393804924286E-02 4.778271918341E-01
C13 -2.765761663577E-01 1.479461865309E-01 -2.658820674764E-01
C14 -3.462183023816E-01 3.538785715893E-01 -4.020253352413E-01
H15 5.053128985354E-02 -2.614082675279E-01 -4.936605948297E-01
C16 -1.494984148400E-01 -3.225597030546E-01 4.259426537821E-01
C17 3.496295532531E-01 -2.010607987569E-01 3.655529618458E-01
H18 -3.630646680397E-01 -3.533371164773E-01 3.540271418796E-01
H19 3.630646680397E-01 3.533371164773E-01 -3.540271418796E-01
C20 1.494984148400E-01 3.225597030546E-01 -4.259426537821E-01
C21 1.658900750274E-01 9.250735976056E-02 4.605791592533E-01
H22 -2.774351495574E-01 2.974913015328E-02 -2.361528366283E-01
C23 -2.010656240938E-01 2.442893477414E-01 -2.051950384640E-01
H24 -3.995035406032E-01 3.953048665654E-01 -4.801854989591E-01
C25 -2.729271385858E-01 4.513055947941E-01 -3.405534786723E-01
H26 -7.682952708839E-02 -4.275762707421E-01 3.885119342356E-01
C27 2.765761663577E-01 -1.479461865309E-01 2.658820674764E-01
C28 3.462183023816E-01 -3.538785715893E-01 4.020253352413E-01
H29 7.682952708839E-02 4.275762707421E-01 -3.885119342356E-01
C30 7.691803254623E-02 2.271932170947E-01 -4.934345021229E-01
H31 1.083161679135E-01 1.902576531835E-02 4.111625309934E-01
H32 -1.428237339656E-01 2.010425058141E-01 -1.289282602548E-01
C33 -1.994608375521E-01 3.963515274568E-01 -2.420194924037E-01
H34 -2.716966814480E-01 -4.309812110283E-01 -3.707026765333E-01
H35 2.774351495574E-01 -2.974913015328E-02 2.361528366283E-01
C36 2.010656240938E-01 -2.442893477414E-01 2.051950384640E-01
H37 3.995035406032E-01 -3.953048665654E-01 4.801854989591E-01
C38 2.729271385858E-01 -4.513055947941E-01 3.405534786723E-01
H39 -5.053128985354E-02 2.614082675279E-01 4.936605948297E-01
H40 -1.407804454921E-01 4.708229777740E-01 -1.940155058923E-01
H41 1.428237339656E-01 -2.010425058141E-01 1.289282602548E-01
C42 1.994608375521E-01 -3.963515274568E-01 2.420194924037E-01
H43 2.716966814480E-01 4.309812110283E-01 3.707026765333E-01
H44 1.407804454921E-01 -4.708229777740E-01 1.940155058923E-01
C45 -4.785765085939E-02 -3.338303012481E-01 -1.946122523329E-02
C46 9.431149520344E-02 -4.216707679208E-01 -6.544689408925E-02
C47 -1.006380357923E-01 -1.654270345453E-01 -3.450079987250E-02
C48 -1.426398953364E-01 -4.128671972818E-01 4.735260934563E-02
C49 1.426398953364E-01 4.128671972818E-01 -4.735260934563E-02
C50 1.964216056755E-01 -3.430587254453E-01 -1.331481104161E-01
H51 -2.939900136601E-02 -1.049419995966E-01 -8.377428894747E-02
C52 -2.358867490500E-01 -8.066436663071E-02 1.340852008592E-02
C53 -9.431149520344E-02 4.216707679208E-01 6.544689408925E-02
C54 -2.822909834390E-01 -3.184483431986E-01 9.678922813063E-02
C55 2.822909834390E-01 3.184483431986E-01 -9.678922813063E-02
C56 4.785765085939E-02 3.338303012481E-01 1.946122523329E-02
C57 1.477522903013E-01 -2.830149354813E-01 -2.368534652812E-01
C58 3.472869687245E-01 -3.346187495183E-01 -9.543711743081E-02
H59 -2.727820345513E-01 4.699477732317E-02 1.884298737761E-03
C60 -3.275623983834E-01 -1.581060126920E-01 8.057321148076E-02
C61 -1.964216056755E-01 3.430587254453E-01 1.331481104161E-01
H62 -3.525730763356E-01 -3.762129405180E-01 1.486285129481E-01
H63 3.525730763356E-01 3.762129405180E-01 -1.486285129481E-01
C64 3.275623983834E-01 1.581060126920E-01 -8.057321148076E-02
C65 1.006380357923E-01 1.654270345453E-01 3.450079987250E-02
H66 3.083891962138E-02 -2.876187793837E-01 -2.671421945908E-01
C67 2.480882324712E-01 -2.177067497544E-01 -3.014422734986E-01
H68 3.853505546483E-01 -3.790466470885E-01 -1.451255165566E-02
C69 4.482690246522E-01 -2.709923799824E-01 -1.605374098936E-01
H70 -4.326069627991E-01 -8.892655776162E-02 1.201001739805E-01
C71 -1.477522903013E-01 2.830149354813E-01 2.368534652812E-01
C72 -3.472869687245E-01 3.346187495183E-01 9.543711743081E-02
H73 4.326069627991E-01 8.892655776162E-02 -1.201001739805E-01
C74 2.358867490500E-01 8.066436663071E-02 -1.340852008592E-02
H75 2.939900136601E-02 1.049419995966E-01 8.377428894747E-02
H76 2.087334007794E-01 -1.695967228349E-01 -3.811921564434E-01
C77 3.988119847742E-01 -2.125907101546E-01 -2.639952214054E-01
H78 -4.350400857030E-01 -2.666081653406E-01 -1.298632977698E-01
H79 -3.083891962138E-02 2.876187793837E-01 2.671421945908E-01
C80 -2.480882324712E-01 2.177067497544E-01 3.014422734986E-01
H81 -3.853505546483E-01 3.790466470885E-01 1.451255165566E-02
C82 -4.482690246522E-01 2.709923799824E-01 1.605374098936E-01
H83 2.727820345513E-01 -4.699477732317E-02 -1.884298737761E-03
H84 4.765652711816E-01 -1.621690663156E-01 -3.149844172810E-01
H85 -2.087334007794E-01 1.695967228349E-01 3.811921564434E-01
C86 -3.988119847742E-01 2.125907101546E-01 2.639952214054E-01
H87 4.350400857030E-01 2.666081653406E-01 1.298632977698E-01
H88 -4.765652711816E-01 1.621690663156E-01 3.149844172810E-01


#===END
