###############################################################
#
#primitive cell cif file
#
###############################################################

DP910Anegm6_data

_symmetry_space_group_name_H-M 'P 1'
_cell_length_a      8.64136129
_cell_length_b      8.64136129
_cell_length_c      12.29000000
_cell_angle_alpha   89.628883
_cell_angle_beta    90.371117
_cell_angle_gamma   76.418725

loop_
_atom_site_label
_atom_site_fract_x
_atom_site_fract_y
_atom_site_fract_z
C1 -3.347724438496E-01 -4.388282596308E-02 -4.760818227196E-01
C2 -4.282489479289E-01 9.752750783416E-02 -4.324369404556E-01
C3 -1.667851842493E-01 -9.240400231814E-02 -4.568147330609E-01
C4 -4.071652684787E-01 -1.419835121708E-01 4.550296319325E-01
C5 4.071652684787E-01 1.419835121708E-01 -4.550296319325E-01
C6 -3.542184680309E-01 2.020758193392E-01 -3.635434412437E-01
H7 -1.110173894626E-01 -1.836762702311E-02 -4.064237189073E-01
C8 -7.641817480515E-02 -2.269240168417E-01 4.976410024191E-01
C9 4.282489479289E-01 -9.752750783416E-02 4.324369404556E-01
C10 -3.069670747827E-01 -2.807936364191E-01 4.082651196411E-01
C11 3.069670747827E-01 2.807936364191E-01 -4.082651196411E-01
C12 3.347724438496E-01 4.388282596308E-02 4.760818227196E-01
C13 -2.938177253186E-01 1.536317748256E-01 -2.598195595090E-01
C14 -3.449768268273E-01 3.524077733472E-01 -4.017276025245E-01
H15 5.078384294682E-02 -2.608905315240E-01 -4.877622668509E-01
C16 -1.473568786780E-01 -3.222210416919E-01 4.287387241216E-01
C17 3.542184680309E-01 -2.020758193392E-01 3.635434412437E-01
H18 -3.598184718927E-01 -3.534612138742E-01 3.549145338902E-01
H19 3.598184718927E-01 3.534612138742E-01 -3.549145338902E-01
C20 1.473568786780E-01 3.222210416919E-01 -4.287387241216E-01
C21 1.667851842493E-01 9.240400231814E-02 4.568147330609E-01
H22 -2.982558452577E-01 3.681651664402E-02 -2.292937801577E-01
C23 -2.262363967796E-01 2.530957349475E-01 -1.961568082539E-01
H24 -3.889019874779E-01 3.898796733097E-01 -4.828900393223E-01
C25 -2.794355726951E-01 4.527799242557E-01 -3.374097520147E-01
H26 -7.356151968310E-02 -4.267479677377E-01 3.912376504453E-01
C27 2.938177253186E-01 -1.536317748256E-01 2.598195595090E-01
C28 3.449768268273E-01 -3.524077733472E-01 4.017276025245E-01
H29 7.356151968310E-02 4.267479677377E-01 -3.912376504453E-01
C30 7.641817480515E-02 2.269240168417E-01 -4.976410024191E-01
H31 1.110173894626E-01 1.836762702311E-02 4.064237189073E-01
H32 -1.772874233468E-01 2.132954939453E-01 -1.167312899123E-01
C33 -2.196113124414E-01 4.030642161723E-01 -2.343571804285E-01
H34 -2.740338656879E-01 -4.310099630609E-01 -3.684174716131E-01
H35 2.982558452577E-01 -3.681651664402E-02 2.292937801577E-01
C36 2.262363967796E-01 -2.530957349475E-01 1.961568082539E-01
H37 3.889019874779E-01 -3.898796733097E-01 4.828900393223E-01
C38 2.794355726951E-01 -4.527799242557E-01 3.374097520147E-01
H39 -5.078384294682E-02 2.608905315240E-01 4.877622668509E-01
H40 -1.668312568123E-01 4.799535842025E-01 -1.843014357639E-01
H41 1.772874233468E-01 -2.132954939453E-01 1.167312899123E-01
C42 2.196113124414E-01 -4.030642161723E-01 2.343571804285E-01
H43 2.740338656879E-01 4.310099630609E-01 3.684174716131E-01
H44 1.668312568123E-01 -4.799535842025E-01 1.843014357639E-01
C45 -4.791287413926E-02 -3.333661918663E-01 -1.771585611877E-02
C46 9.406821338618E-02 -4.201383697542E-01 -6.489936997136E-02
C47 -1.007413932347E-01 -1.645319253233E-01 -3.073637368012E-02
C48 -1.423793057906E-01 -4.139827112957E-01 4.838555139343E-02
C49 1.423793057906E-01 4.139827112957E-01 -4.838555139343E-02
C50 1.954065850932E-01 -3.384698106675E-01 -1.311385898141E-01
H51 -3.005713966126E-02 -1.022407780474E-01 -7.903547686140E-02
C52 -2.361559493030E-01 -8.116422437179E-02 1.761502038211E-02
C53 -9.406821338618E-02 4.201383697542E-01 6.489936997136E-02
C54 -2.820950133108E-01 -3.207486750583E-01 9.839999845456E-02
C55 2.820950133108E-01 3.207486750583E-01 -9.839999845456E-02
C56 4.791287413926E-02 3.333661918663E-01 1.771585611877E-02
C57 1.420667020065E-01 -2.657733765204E-01 -2.307909573137E-01
C58 3.487577669666E-01 -3.358602250726E-01 -9.513938471402E-02
H59 -2.732997705552E-01 4.674222422989E-02 7.782626716596E-03
C60 -3.279010597461E-01 -1.602475488539E-01 8.336928182024E-02
C61 -1.954065850932E-01 3.384698106675E-01 1.311385898141E-01
H62 -3.524489789386E-01 -3.794591366651E-01 1.495159049587E-01
H63 3.524489789386E-01 3.794591366651E-01 -1.495159049587E-01
C64 3.279010597461E-01 1.602475488539E-01 -8.336928182024E-02
C65 1.007413932347E-01 1.645319253233E-01 3.073637368012E-02
H66 2.377153313055E-02 -2.667980836833E-01 -2.602831381201E-01
C67 2.392818452650E-01 -1.925359770686E-01 -2.924040432885E-01
H68 3.907757479040E-01 -3.896482002139E-01 -1.721709201884E-02
C69 4.467946951906E-01 -2.644839458731E-01 -1.573936832360E-01
H70 -4.334352658035E-01 -9.219456516691E-02 1.228258901903E-01
C71 -1.420667020065E-01 2.657733765204E-01 2.307909573137E-01
C72 -3.487577669666E-01 3.358602250726E-01 9.513938471402E-02
H73 4.334352658035E-01 9.219456516691E-02 -1.228258901903E-01
C74 2.361559493030E-01 8.116422437179E-02 -1.761502038211E-02
H75 3.005713966126E-02 1.022407780474E-01 7.903547686140E-02
H76 1.964804126481E-01 -1.351330334537E-01 -3.689951861009E-01
C77 3.920992960586E-01 -1.924402352653E-01 -2.563329094302E-01
H78 -4.350113336704E-01 -2.642709811006E-01 -1.275780928496E-01
H79 -2.377153313055E-02 2.667980836833E-01 2.602831381201E-01
C80 -2.392818452650E-01 1.925359770686E-01 2.924040432885E-01
H81 -3.907757479040E-01 3.896482002139E-01 1.721709201884E-02
C82 -4.467946951906E-01 2.644839458731E-01 1.573936832360E-01
H83 2.732997705552E-01 -4.674222422989E-02 -7.782626716596E-03
H84 4.674346647531E-01 -1.361182549954E-01 -3.052703471526E-01
H85 -1.964804126481E-01 1.351330334537E-01 3.689951861009E-01
C86 -3.920992960586E-01 1.924402352653E-01 2.563329094302E-01
H87 4.350113336704E-01 2.642709811006E-01 1.275780928496E-01
H88 -4.674346647531E-01 1.361182549954E-01 3.052703471526E-01


#===END
