###############################################################
#
#primitive cell cif file
#
###############################################################

DP910Anegm9_data

_symmetry_space_group_name_H-M 'P 1'
_cell_length_a      8.64136129
_cell_length_b      8.64136129
_cell_length_c      12.29000000
_cell_angle_alpha   89.628883
_cell_angle_beta    90.371117
_cell_angle_gamma   76.418725

loop_
_atom_site_label
_atom_site_fract_x
_atom_site_fract_y
_atom_site_fract_z
C1 -3.350647019104E-01 -4.655365645084E-02 -4.807834792859E-01
C2 -4.249665633379E-01 9.577750574891E-02 -4.362559648896E-01
C3 -1.668537845503E-01 -9.769193797169E-02 -4.636621485751E-01
C4 -4.113348250021E-01 -1.423144572541E-01 4.510116253237E-01
C5 4.098131547723E-01 1.420483607072E-01 -4.556324552153E-01
C6 -3.479214908965E-01 2.011312071598E-01 -3.702373605219E-01
H7 -1.084633707908E-01 -2.611277204791E-02 -4.131549992358E-01
C8 -7.954174406226E-02 -2.318299575073E-01 4.886744569422E-01
C9 4.234207543452E-01 -9.581821547143E-02 4.312816055946E-01
C10 -3.139872758029E-01 -2.804100222628E-01 4.017552310795E-01
C11 3.137284740381E-01 2.824786274670E-01 -4.081098901070E-01
C12 3.330739338056E-01 4.524204365141E-02 4.775824873149E-01
C13 -2.868868938330E-01 1.561880201517E-01 -2.661919388201E-01
C14 -3.398856838966E-01 3.507199440952E-01 -4.107673812429E-01
H15 4.794170864958E-02 -2.675718724559E-01 -4.986231575374E-01
C16 -1.539822240209E-01 -3.239689990651E-01 4.197815240605E-01
C17 3.447667878019E-01 -1.963511972726E-01 3.621674909077E-01
H18 -3.693467803934E-01 -3.511647426008E-01 3.486300674221E-01
H19 3.699308281644E-01 3.547454502121E-01 -3.567685615094E-01
C20 1.536222035110E-01 3.261531023730E-01 -4.255879182408E-01
C21 1.644633250224E-01 9.545345758116E-02 4.624162108057E-01
H22 -2.907561066090E-01 4.010631093755E-02 -2.337836929395E-01
C23 -2.208226054008E-01 2.586901821821E-01 -2.040869092058E-01
H24 -3.842426725481E-01 3.855792447929E-01 -4.921286937786E-01
C25 -2.756296201720E-01 4.538659941933E-01 -3.482035467524E-01
H26 -8.270780861960E-02 -4.281248119546E-01 3.805467298128E-01
C27 2.727042080060E-01 -1.395104566805E-01 2.628366633752E-01
C28 3.409513680032E-01 -3.504455962186E-01 3.958208365676E-01
H29 8.304827623041E-02 4.320584215865E-01 -3.878650304422E-01
C30 7.804065511468E-02 2.312500086375E-01 -4.913515250947E-01
H31 1.047947967192E-01 2.231199463646E-02 4.142332428101E-01
H32 -1.720629998779E-01 2.220276500251E-01 -1.240452940469E-01
C33 -2.161015109547E-01 4.081204070361E-01 -2.445191796479E-01
H34 -2.712821644950E-01 -4.307503236851E-01 -3.810701432224E-01
H35 2.742978223321E-01 -2.048173883711E-02 2.352269490980E-01
C36 1.979497684474E-01 -2.336873980305E-01 1.996658557597E-01
H37 3.943075151438E-01 -3.950761764209E-01 4.735442535248E-01
C38 2.682898983962E-01 -4.457086252529E-01 3.318125220263E-01
H39 -4.958435852713E-02 2.666184296233E-01 4.969217360301E-01
H40 -1.654173839933E-01 4.876606364360E-01 -1.953378678842E-01
H41 1.403574569226E-01 -1.877482565684E-01 1.236908097645E-01
C42 1.959500367520E-01 -3.870431051949E-01 2.335050913504E-01
H43 2.670226822935E-01 4.352709730462E-01 3.597692355411E-01
H44 1.375321278144E-01 -4.597276125196E-01 1.836932207271E-01
C45 -4.655365645085E-02 -3.350647019104E-01 -1.921652071412E-02
C46 9.577750574890E-02 -4.249665633379E-01 -6.374403511037E-02
C47 -9.769193797170E-02 -1.668537845502E-01 -3.633785142489E-02
C48 -1.423144572541E-01 -4.113348250021E-01 4.898837467625E-02
C49 1.420483607072E-01 4.098131547723E-01 -4.436754478472E-02
C50 2.011312071598E-01 -3.479214908965E-01 -1.297626394781E-01
H51 -2.611277204792E-02 -1.084633707908E-01 -8.684500076417E-02
C52 -2.318299575073E-01 -7.954174406225E-02 1.132554305775E-02
C53 -9.581821547144E-02 4.234207543452E-01 6.871839440538E-02
C54 -2.804100222628E-01 -3.139872758028E-01 9.824476892050E-02
C55 2.824786274670E-01 3.137284740382E-01 -9.189010989300E-02
C56 4.524204365140E-02 3.330739338056E-01 2.241751268509E-02
C57 1.561880201517E-01 -2.868868938330E-01 -2.338080611799E-01
C58 3.507199440952E-01 -3.398856838966E-01 -8.923261875707E-02
H59 -2.675718724559E-01 4.794170864959E-02 -1.376842462618E-03
C60 -3.239689990651E-01 -1.539822240209E-01 8.021847593947E-02
C61 -1.963511972726E-01 3.447667878019E-01 1.378325090923E-01
H62 -3.511647426008E-01 -3.693467803933E-01 1.513699325779E-01
H63 3.547454502121E-01 3.699308281644E-01 -1.432314384906E-01
C64 3.261531023729E-01 1.536222035110E-01 -7.441208175916E-02
C65 9.545345758115E-02 1.644633250224E-01 3.758378919435E-02
H66 4.010631093754E-02 -2.907561066090E-01 -2.662163070605E-01
C67 2.586901821821E-01 -2.208226054008E-01 -2.959130907942E-01
H68 3.855792447929E-01 -3.842426725481E-01 -7.871306221391E-03
C69 4.538659941933E-01 -2.756296201720E-01 -1.517964532476E-01
H70 -4.281248119546E-01 -8.270780861959E-02 1.194532701872E-01
C71 -1.395104566805E-01 2.727042080060E-01 2.371633366248E-01
C72 -3.504455962186E-01 3.409513680033E-01 1.041791634324E-01
H73 4.320584215865E-01 8.304827623042E-02 -1.121349695578E-01
C74 2.312500086375E-01 7.804065511469E-02 -8.648474905280E-03
H75 2.231199463645E-02 1.047947967192E-01 8.576675718992E-02
H76 2.220276500251E-01 -1.720629998779E-01 -3.759547059531E-01
C77 4.081204070361E-01 -2.161015109547E-01 -2.554808203521E-01
H78 -4.307503236851E-01 -2.712821644950E-01 -1.189298567776E-01
H79 -2.048173883712E-02 2.742978223321E-01 2.647730509020E-01
C80 -2.336873980305E-01 1.979497684474E-01 3.003341442403E-01
H81 -3.950761764209E-01 3.943075151438E-01 2.645574647519E-02
C82 -4.457086252529E-01 2.682898983962E-01 1.681874779737E-01
H83 2.666184296233E-01 -4.958435852712E-02 3.078263969916E-03
H84 4.876606364360E-01 -1.654173839933E-01 -3.046621321158E-01
H85 -1.877482565684E-01 1.403574569226E-01 3.763091902355E-01
C86 -3.870431051949E-01 1.959500367520E-01 2.664949086496E-01
H87 4.352709730462E-01 2.670226822936E-01 1.402307644589E-01
H88 -4.597276125196E-01 1.375321278144E-01 3.163067792729E-01


#===END
