###############################################################
#
#primitive cell cif file
#
###############################################################

DP910Aposm7_data

_symmetry_space_group_name_H-M 'P 1'
_cell_length_a      8.64136129
_cell_length_b      8.64136129
_cell_length_c      12.29000000
_cell_angle_alpha   89.628883
_cell_angle_beta    90.371117
_cell_angle_gamma   76.418725

loop_
_atom_site_label
_atom_site_fract_x
_atom_site_fract_y
_atom_site_fract_z
C1 -3.345878472282E-01 -4.920601599022E-02 -4.784584620619E-01
C2 -4.226393013850E-01 9.315889992595E-02 -4.326017769490E-01
C3 -1.663131342836E-01 -1.026265044868E-01 -4.621501368678E-01
C4 -4.126288793789E-01 -1.433550864310E-01 4.533014407662E-01
C5 4.126288793789E-01 1.433550864310E-01 -4.533014407662E-01
C6 -3.428030228002E-01 1.924579450677E-01 -3.634462808695E-01
H7 -1.061441642739E-01 -3.130688847708E-02 -4.127806930646E-01
C8 -8.113523659249E-02 -2.381686136224E-01 4.906259222869E-01
C9 4.226393013850E-01 -9.315889992595E-02 4.326017769490E-01
C10 -3.177930254257E-01 -2.839936417669E-01 4.054000822512E-01
C11 3.177930254257E-01 2.839936417669E-01 -4.054000822512E-01
C12 3.345878472282E-01 4.920601599022E-02 4.784584620619E-01
C13 -2.763102336326E-01 1.376685707855E-01 -2.622892111611E-01
C14 -3.355735497947E-01 3.452114112895E-01 -3.978725035250E-01
H15 4.642568483942E-02 -2.751322614369E-01 -4.974781026048E-01
C16 -1.580163811196E-01 -3.302782049466E-01 4.235586049180E-01
C17 3.428030228002E-01 -1.924579450677E-01 3.634462808695E-01
H18 -3.747105006555E-01 -3.542645144785E-01 3.530250029674E-01
H19 3.747105006555E-01 3.542645144785E-01 -3.530250029674E-01
C20 1.580163811196E-01 3.302782049466E-01 -4.235586049180E-01
C21 1.663131342836E-01 1.026265044868E-01 4.621501368678E-01
H22 -2.808141371156E-01 1.979051764154E-02 -2.339836847364E-01
C23 -2.038262447381E-01 2.326167381282E-01 -1.981733374963E-01
H24 -3.848810877519E-01 3.883384068363E-01 -4.768225722515E-01
C25 -2.654964502685E-01 4.411968004003E-01 -3.328493961203E-01
H26 -8.851362869753E-02 -4.361674239967E-01 3.851822477988E-01
C27 2.763102336326E-01 -1.376685707855E-01 2.622892111611E-01
C28 3.355735497947E-01 -3.452114112895E-01 3.978725035250E-01
H29 8.851362869753E-02 4.361674239967E-01 -3.851822477988E-01
C30 8.113523659249E-02 2.381686136224E-01 -4.906259222869E-01
H31 1.061441642739E-01 3.130688847708E-02 4.127806930646E-01
H32 -1.507032662223E-01 1.881740910828E-01 -1.206397903439E-01
C33 -1.988485577526E-01 3.847125040464E-01 -2.327122599214E-01
H34 -2.619887710133E-01 -4.406195540489E-01 -3.612286584619E-01
H35 2.808141371156E-01 -1.979051764154E-02 2.339836847364E-01
C36 2.038262447381E-01 -2.326167381282E-01 1.981733374963E-01
H37 3.848810877519E-01 -3.883384068363E-01 4.768225722515E-01
C38 2.654964502685E-01 -4.411968004003E-01 3.328493961203E-01
H39 -4.642568483942E-02 2.751322614369E-01 4.974781026048E-01
H40 -1.426703904753E-01 4.581985764565E-01 -1.821138684917E-01
H41 1.507032662223E-01 -1.881740910828E-01 1.206397903439E-01
C42 1.988485577526E-01 -3.847125040464E-01 2.327122599214E-01
H43 2.619887710133E-01 4.406195540489E-01 3.612286584619E-01
H44 1.426703904753E-01 -4.581985764565E-01 1.821138684917E-01
C45 -4.920601599023E-02 -3.345878472282E-01 -2.154153793807E-02
C46 9.315889992594E-02 -4.226393013850E-01 -6.739822305103E-02
C47 -1.026265044868E-01 -1.663131342836E-01 -3.784986313215E-02
C48 -1.433550864310E-01 -4.126288793789E-01 4.669855923376E-02
C49 1.433550864310E-01 4.126288793789E-01 -4.669855923376E-02
C50 1.924579450677E-01 -3.428030228002E-01 -1.365537191305E-01
H51 -3.130688847709E-02 -1.061441642739E-01 -8.721930693540E-02
C52 -2.381686136224E-01 -8.113523659248E-02 9.374077713141E-03
C53 -9.315889992596E-02 4.226393013850E-01 6.739822305103E-02
C54 -2.839936417669E-01 -3.177930254257E-01 9.459991774882E-02
C55 2.839936417669E-01 3.177930254257E-01 -9.459991774882E-02
C56 4.920601599021E-02 3.345878472282E-01 2.154153793807E-02
C57 1.376685707855E-01 -2.763102336326E-01 -2.377107888389E-01
C58 3.452114112895E-01 -3.355735497946E-01 -1.021274964750E-01
H59 -2.751322614369E-01 4.642568483943E-02 -2.521897395188E-03
C60 -3.302782049467E-01 -1.580163811196E-01 7.644139508204E-02
C61 -1.924579450677E-01 3.428030228003E-01 1.365537191305E-01
H62 -3.542645144785E-01 -3.747105006555E-01 1.469749970326E-01
H63 3.542645144785E-01 3.747105006555E-01 -1.469749970326E-01
C64 3.302782049466E-01 1.580163811196E-01 -7.644139508204E-02
C65 1.026265044868E-01 1.663131342836E-01 3.784986313215E-02
H66 1.979051764153E-02 -2.808141371156E-01 -2.660163152636E-01
C67 2.326167381282E-01 -2.038262447381E-01 -3.018266625037E-01
H68 3.883384068363E-01 -3.848810877519E-01 -2.317742774851E-02
C69 4.411968004003E-01 -2.654964502685E-01 -1.671506038797E-01
H70 -4.361674239967E-01 -8.851362869752E-02 1.148177522012E-01
C71 -1.376685707855E-01 2.763102336326E-01 2.377107888389E-01
C72 -3.452114112895E-01 3.355735497947E-01 1.021274964750E-01
H73 4.361674239967E-01 8.851362869754E-02 -1.148177522012E-01
C74 2.381686136224E-01 8.113523659250E-02 -9.374077713141E-03
H75 3.130688847707E-02 1.061441642739E-01 8.721930693540E-02
H76 1.881740910828E-01 -1.507032662223E-01 -3.793602096561E-01
C77 3.847125040464E-01 -1.988485577525E-01 -2.672877400786E-01
H78 -4.406195540489E-01 -2.619887710133E-01 -1.387713415381E-01
H79 -1.979051764155E-02 2.808141371156E-01 2.660163152636E-01
C80 -2.326167381282E-01 2.038262447381E-01 3.018266625037E-01
H81 -3.883384068363E-01 3.848810877519E-01 2.317742774851E-02
C82 -4.411968004003E-01 2.654964502685E-01 1.671506038797E-01
H83 2.751322614369E-01 -4.642568483941E-02 2.521897395188E-03
H84 4.581985764565E-01 -1.426703904753E-01 -3.178861315083E-01
H85 -1.881740910828E-01 1.507032662223E-01 3.793602096561E-01
C86 -3.847125040464E-01 1.988485577526E-01 2.672877400786E-01
H87 4.406195540488E-01 2.619887710133E-01 1.387713415381E-01
H88 -4.581985764565E-01 1.426703904753E-01 3.178861315083E-01


#===END
