###############################################################
#
#primitive cell cif file
#
###############################################################

DP910Anegm19_data

_symmetry_space_group_name_H-M 'P 1'
_cell_length_a      8.64136129
_cell_length_b      8.64136129
_cell_length_c      12.29000000
_cell_angle_alpha   89.628883
_cell_angle_beta    90.371117
_cell_angle_gamma   76.418725

loop_
_atom_site_label
_atom_site_fract_x
_atom_site_fract_y
_atom_site_fract_z
C1 -3.337676277641E-01 -4.717566893900E-02 -4.800891759343E-01
C2 -4.221360797193E-01 9.588620750323E-02 -4.355153384918E-01
C3 -1.654848541185E-01 -9.951240836947E-02 -4.645198870348E-01
C4 -4.124354752820E-01 -1.433721715188E-01 4.540032860222E-01
C5 4.124354752820E-01 1.433721715188E-01 -4.540032860222E-01
C6 -3.441802561293E-01 1.989209952690E-01 -3.679586250635E-01
H7 -1.049482849293E-01 -2.749345921411E-02 -4.159597897933E-01
C8 -8.064158732388E-02 -2.359713116721E-01 4.890720076917E-01
C9 4.221360797193E-01 -9.588620750323E-02 4.355153384918E-01
C10 -3.177561196941E-01 -2.840004627009E-01 4.058562228179E-01
C11 3.177561196941E-01 2.840004627009E-01 -4.058562228179E-01
C12 3.337676277641E-01 4.717566893900E-02 4.800891759343E-01
C13 -2.849770654138E-01 1.503199237996E-01 -2.640500476537E-01
C14 -3.345101207071E-01 3.493273021963E-01 -4.058878487258E-01
H15 4.689046268192E-02 -2.728774929137E-01 -4.992220391148E-01
C16 -1.575409157512E-01 -3.290039484131E-01 4.226527742637E-01
C17 3.441802561293E-01 -1.989209952690E-01 3.679586250635E-01
H18 -3.751347448620E-01 -3.552261222621E-01 3.545123377936E-01
H19 3.751347448620E-01 3.552261222621E-01 -3.545123377936E-01
C20 1.575409157512E-01 3.290039484131E-01 -4.226527742637E-01
C21 1.654848541185E-01 9.951240836947E-02 4.645198870348E-01
H22 -2.901996845110E-01 3.355617880427E-02 -2.338102017469E-01
C23 -2.196708495960E-01 2.503733035969E-01 -1.992367992350E-01
H24 -3.785000809332E-01 3.875740411472E-01 -4.868397252018E-01
C25 -2.701122908358E-01 4.498341140695E-01 -3.408432666305E-01
H26 -8.808239322643E-02 -4.348078385811E-01 3.841681601548E-01
C27 2.849770654138E-01 -1.503199237996E-01 2.640500476537E-01
C28 3.345101207071E-01 -3.493273021963E-01 4.058878487258E-01
H29 8.808239322643E-02 4.348078385811E-01 -3.841681601548E-01
C30 8.064158732388E-02 2.359713116721E-01 -4.890720076917E-01
H31 1.049482849293E-01 2.749345921411E-02 4.159597897933E-01
H32 -1.725531419284E-01 2.112009581346E-01 -1.192158132698E-01
C33 -2.128690578268E-01 4.005840375199E-01 -2.370749874298E-01
H34 -2.642834644620E-01 -4.341005504920E-01 -3.719236585487E-01
H35 2.901996845110E-01 -3.355617880427E-02 2.338102017469E-01
C36 2.196708495960E-01 -2.503733035969E-01 1.992367992350E-01
H37 3.785000809332E-01 -3.875740411472E-01 4.868397252018E-01
C38 2.701122908358E-01 -4.498341140695E-01 3.408432666305E-01
H39 -4.689046268192E-02 2.728774929137E-01 4.992220391148E-01
H40 -1.621824714980E-01 4.780080042878E-01 -1.859858789702E-01
H41 1.725531419284E-01 -2.112009581346E-01 1.192158132698E-01
C42 2.128690578268E-01 -4.005840375199E-01 2.370749874298E-01
H43 2.642834644620E-01 4.341005504920E-01 3.719236585487E-01
H44 1.621824714980E-01 -4.780080042878E-01 1.859858789702E-01
C45 -4.717566893901E-02 -3.337676277641E-01 -1.991082406571E-02
C46 9.588620750322E-02 -4.221360797193E-01 -6.448466150821E-02
C47 -9.951240836948E-02 -1.654848541184E-01 -3.548011296516E-02
C48 -1.433721715188E-01 -4.124354752820E-01 4.599671397776E-02
C49 1.433721715187E-01 4.124354752820E-01 -4.599671397776E-02
C50 1.989209952689E-01 -3.441802561293E-01 -1.320413749365E-01
H51 -2.749345921412E-02 -1.049482849293E-01 -8.404021020669E-02
C52 -2.359713116722E-01 -8.064158732387E-02 1.092799230827E-02
C53 -9.588620750324E-02 4.221360797193E-01 6.448466150821E-02
C54 -2.840004627009E-01 -3.177561196941E-01 9.414377718212E-02
C55 2.840004627009E-01 3.177561196941E-01 -9.414377718212E-02
C56 4.717566893899E-02 3.337676277641E-01 1.991082406571E-02
C57 1.503199237996E-01 -2.849770654138E-01 -2.359499523463E-01
C58 3.493273021963E-01 -3.345101207071E-01 -9.411215127418E-02
H59 -2.728774929137E-01 4.689046268192E-02 -7.779608851777E-04
C60 -3.290039484132E-01 -1.575409157512E-01 7.734722573628E-02
C61 -1.989209952690E-01 3.441802561293E-01 1.320413749365E-01
H62 -3.552261222621E-01 -3.751347448620E-01 1.454876622064E-01
H63 3.552261222621E-01 3.751347448620E-01 -1.454876622064E-01
C64 3.290039484131E-01 1.575409157512E-01 -7.734722573628E-02
C65 9.951240836946E-02 1.654848541185E-01 3.548011296516E-02
H66 3.355617880426E-02 -2.901996845110E-01 -2.661897982531E-01
C67 2.503733035969E-01 -2.196708495960E-01 -3.007632007650E-01
H68 3.875740411472E-01 -3.785000809332E-01 -1.316027479824E-02
C69 4.498341140695E-01 -2.701122908358E-01 -1.591567333695E-01
H70 -4.348078385811E-01 -8.808239322642E-02 1.158318398452E-01
C71 -1.503199237996E-01 2.849770654139E-01 2.359499523463E-01
C72 -3.493273021964E-01 3.345101207071E-01 9.411215127418E-02
H73 4.348078385811E-01 8.808239322644E-02 -1.158318398452E-01
C74 2.359713116721E-01 8.064158732389E-02 -1.092799230827E-02
H75 2.749345921410E-02 1.049482849293E-01 8.404021020669E-02
H76 2.112009581346E-01 -1.725531419284E-01 -3.807841867302E-01
C77 4.005840375199E-01 -2.128690578268E-01 -2.629250125702E-01
H78 -4.341005504920E-01 -2.642834644620E-01 -1.280763414513E-01
H79 -3.355617880428E-02 2.901996845111E-01 2.661897982531E-01
C80 -2.503733035969E-01 2.196708495960E-01 3.007632007650E-01
H81 -3.875740411472E-01 3.785000809332E-01 1.316027479824E-02
C82 -4.498341140695E-01 2.701122908358E-01 1.591567333695E-01
H83 2.728774929137E-01 -4.689046268191E-02 7.779608851777E-04
H84 4.780080042878E-01 -1.621824714980E-01 -3.140141210298E-01
H85 -2.112009581346E-01 1.725531419284E-01 3.807841867302E-01
C86 -4.005840375199E-01 2.128690578268E-01 2.629250125702E-01
H87 4.341005504920E-01 2.642834644620E-01 1.280763414513E-01
H88 -4.780080042878E-01 1.621824714980E-01 3.140141210298E-01


#===END
