###############################################################
#
#primitive cell cif file
#
###############################################################

DP910Aposm4_data

_symmetry_space_group_name_H-M 'P 1'
_cell_length_a      8.64136129
_cell_length_b      8.64136129
_cell_length_c      12.29000000
_cell_angle_alpha   89.628883
_cell_angle_beta    90.371117
_cell_angle_gamma   76.418725

loop_
_atom_site_label
_atom_site_fract_x
_atom_site_fract_y
_atom_site_fract_z
C1 -3.208405820884E-01 -5.861491157007E-02 -4.811146559388E-01
C2 -4.108721040145E-01 8.322900004760E-02 -4.358816131298E-01
C3 -1.524325286404E-01 -1.089281177263E-01 -4.646760162966E-01
C4 -3.972865953113E-01 -1.550614641173E-01 4.514507624691E-01
C5 4.238613844632E-01 1.293013538440E-01 -4.551933180699E-01
C6 -3.343179350694E-01 1.877908994780E-01 -3.686831879447E-01
H7 -9.401039663851E-02 -3.619539072364E-02 -4.151813663497E-01
C8 -6.530449438544E-02 -2.439815598263E-01 4.885417200490E-01
C9 4.375152136686E-01 -1.083667211727E-01 4.316559573544E-01
C10 -3.002258834845E-01 -2.945328340604E-01 4.033100674489E-01
C11 3.274898663565E-01 2.683558156694E-01 -4.065550537376E-01
C12 3.472980536276E-01 3.318078853218E-02 4.772513106620E-01
C13 -2.739506904970E-01 1.415695139156E-01 -2.646471215970E-01
C14 -3.271799012958E-01 3.384189377365E-01 -4.077164872796E-01
H15 6.229349908706E-02 -2.794524413256E-01 -4.990843683429E-01
C16 -1.401374941692E-01 -3.377384755903E-01 4.213401938574E-01
C17 3.583703436290E-01 -2.096915049544E-01 3.637216634850E-01
H18 -3.555815922282E-01 -3.664914389371E-01 3.511822494966E-01
H19 3.836960163295E-01 3.394187538758E-01 -3.542163794349E-01
C20 1.674669333627E-01 3.123836258478E-01 -4.240292484440E-01
C21 1.788845809323E-01 8.421727782650E-02 4.614023430842E-01
H22 -2.780392123334E-01 2.518265974000E-02 -2.330844571367E-01
C23 -2.095776166381E-01 2.439024668523E-01 -2.011775750299E-01
H24 -3.714632384086E-01 3.743911614046E-01 -4.889645994938E-01
C25 -2.644993941545E-01 4.413540645900E-01 -3.437797121507E-01
H26 -6.894439644829E-02 -4.429571336007E-01 3.830714715465E-01
C27 2.856404113419E-01 -1.541289629166E-01 2.643814805983E-01
C28 3.536571506040E-01 -3.627466025772E-01 3.988717305309E-01
H29 9.681168840172E-02 4.172260999404E-01 -3.853402887086E-01
C30 9.227790479150E-02 2.190984063184E-01 -4.914842619879E-01
H31 1.192477708715E-01 1.222937596073E-02 4.122068756962E-01
H32 -1.618198631153E-01 2.066478618295E-01 -1.209746905064E-01
C33 -2.056739428029E-01 3.942784979572E-01 -2.400623098972E-01
H34 -2.608547344800E-01 -4.424056608923E-01 -3.755967955230E-01
H35 2.870147166077E-01 -3.540539003466E-02 2.359261849009E-01
C36 2.091947572101E-01 -2.484751133603E-01 2.025751899355E-01
H37 4.070869492832E-01 -4.062642598091E-01 4.767083478096E-01
C38 2.794201244137E-01 -4.582205548562E-01 3.362363566280E-01
H39 -3.523256808965E-02 2.547378607536E-01 4.964605252245E-01
H40 -1.563863801837E-01 4.737522625439E-01 -1.898039936082E-01
H41 1.506005936852E-01 -2.031280447639E-01 1.267614133050E-01
C42 2.063776049038E-01 -4.008850142738E-01 2.379619611011E-01
H43 2.774501123085E-01 4.236156358390E-01 3.652425832404E-01
H44 1.465631316240E-01 -4.736359864117E-01 1.892270950032E-01
C45 -5.861491157008E-02 -3.208405820884E-01 -1.888534406123E-02
C46 8.322900004759E-02 -4.108721040144E-01 -6.411838687019E-02
C47 -1.089281177264E-01 -1.524325286404E-01 -3.532398370341E-02
C48 -1.550614641173E-01 -3.972865953112E-01 4.854923753087E-02
C49 1.293013538440E-01 4.238613844632E-01 -4.480668193010E-02
C50 1.877908994780E-01 -3.343179350694E-01 -1.313168120553E-01
H51 -3.619539072365E-02 -9.401039663850E-02 -8.481863365026E-02
C52 -2.439815598264E-01 -6.530449438543E-02 1.145827995097E-02
C53 -1.083667211728E-01 4.375152136686E-01 6.834404264556E-02
C54 -2.945328340604E-01 -3.002258834845E-01 9.668993255107E-02
C55 2.683558156694E-01 3.274898663565E-01 -9.344494626243E-02
C56 3.318078853217E-02 3.472980536276E-01 2.274868933798E-02
C57 1.415695139156E-01 -2.739506904970E-01 -2.353528784030E-01
C58 3.384189377365E-01 -3.271799012958E-01 -9.228351272042E-02
H59 -2.794524413257E-01 6.229349908707E-02 -9.156316570553E-04
C60 -3.377384755903E-01 -1.401374941692E-01 7.865980614260E-02
C61 -2.096915049545E-01 3.583703436290E-01 1.362783365150E-01
H62 -3.664914389371E-01 -3.555815922282E-01 1.488177505034E-01
H63 3.394187538757E-01 3.836960163296E-01 -1.457836205651E-01
C64 3.123836258478E-01 1.674669333627E-01 -7.597075155602E-02
C65 8.421727782649E-02 1.788845809323E-01 3.859765691582E-02
H66 2.518265974000E-02 -2.780392123334E-01 -2.669155428633E-01
C67 2.439024668523E-01 -2.095776166381E-01 -2.988224249701E-01
H68 3.743911614046E-01 -3.714632384086E-01 -1.103540050619E-02
C69 4.413540645900E-01 -2.644993941545E-01 -1.562202878493E-01
H70 -4.429571336008E-01 -6.894439644829E-02 1.169285284535E-01
C71 -1.541289629166E-01 2.856404113419E-01 2.356185194017E-01
C72 -3.627466025773E-01 3.536571506041E-01 1.011282694691E-01
H73 4.172260999404E-01 9.681168840173E-02 -1.146597112914E-01
C74 2.190984063184E-01 9.227790479151E-02 -8.515738012065E-03
H75 1.222937596072E-02 1.192477708715E-01 8.779312430382E-02
H76 2.066478618295E-01 -1.618198631152E-01 -3.790253094936E-01
C77 3.942784979572E-01 -2.056739428029E-01 -2.599376901028E-01
H78 -4.424056608923E-01 -2.608547344800E-01 -1.244032044770E-01
H79 -3.540539003467E-02 2.870147166077E-01 2.640738150991E-01
C80 -2.484751133603E-01 2.091947572101E-01 2.974248100645E-01
H81 -4.062642598092E-01 4.070869492832E-01 2.329165219039E-02
C82 -4.582205548562E-01 2.794201244137E-01 1.637636433720E-01
H83 2.547378607536E-01 -3.523256808964E-02 3.539474775478E-03
H84 4.737522625439E-01 -1.563863801837E-01 -3.101960063918E-01
H85 -2.031280447639E-01 1.506005936853E-01 3.732385866950E-01
C86 -4.008850142738E-01 2.063776049038E-01 2.620380388989E-01
H87 4.236156358390E-01 2.774501123085E-01 1.347574167596E-01
H88 -4.736359864117E-01 1.465631316241E-01 3.107729049968E-01


#===END
