###############################################################
#
#primitive cell cif file
#
###############################################################

DP910Aposm23_data

_symmetry_space_group_name_H-M 'P 1'
_cell_length_a      8.64136129
_cell_length_b      8.64136129
_cell_length_c      12.29000000
_cell_angle_alpha   89.628883
_cell_angle_beta    90.371117
_cell_angle_gamma   76.418725

loop_
_atom_site_label
_atom_site_fract_x
_atom_site_fract_y
_atom_site_fract_z
C1 -3.347995562398E-01 -4.438269089893E-02 -4.798735216213E-01
C2 -4.246232510729E-01 9.836195037898E-02 -4.356265554541E-01
C3 -1.672316456335E-01 -9.827791830778E-02 -4.604027521531E-01
C4 -4.110090993595E-01 -1.397492679629E-01 4.516473189430E-01
C5 4.101388804149E-01 1.446135499985E-01 -4.549967615961E-01
C6 -3.466025486048E-01 2.006185410578E-01 -3.676039167044E-01
H7 -1.083487405136E-01 -2.705995787639E-02 -4.099821616276E-01
C8 -8.084148457781E-02 -2.354316640935E-01 4.949244748561E-01
C9 4.237640666101E-01 -9.323377084136E-02 4.319110150301E-01
C10 -3.143219292152E-01 -2.797466666603E-01 4.041225780727E-01
C11 3.133938206258E-01 2.831419830695E-01 -4.057425431138E-01
C12 3.333390794762E-01 4.741300920332E-02 4.784924449795E-01
C13 -2.818274322636E-01 1.489123806608E-01 -2.655816092907E-01
C14 -3.379404814910E-01 3.518154782769E-01 -4.044801780057E-01
H15 4.599635074069E-02 -2.738890452132E-01 -4.897969948076E-01
C16 -1.552136570244E-01 -3.268496104560E-01 4.254313800056E-01
C17 3.460857300937E-01 -1.968638633747E-01 3.648009347253E-01
H18 -3.694577337316E-01 -3.496839358175E-01 3.502015052863E-01
H19 3.698198748261E-01 3.562262569954E-01 -3.551971236452E-01
C20 1.523907705075E-01 3.232724909820E-01 -4.199380622958E-01
C21 1.640854639392E-01 9.486747724506E-02 4.656756072276E-01
H22 -2.870590728661E-01 3.197747361930E-02 -2.356275816422E-01
C23 -2.094411913690E-01 2.452937651092E-01 -2.026944036415E-01
H24 -3.856396715438E-01 3.923350052120E-01 -4.841596337847E-01
C25 -2.677144364087E-01 4.492462375427E-01 -3.407874699637E-01
H26 -8.442061303317E-02 -4.331073066783E-01 3.882085804691E-01
C27 2.777636695754E-01 -1.467860961714E-01 2.634469929046E-01
C28 3.428965704089E-01 -3.493500620369E-01 4.021080398048E-01
H29 8.133547181684E-02 4.270759268628E-01 -3.802031797860E-01
C30 7.674091459913E-02 2.276483020512E-01 -4.851015071809E-01
H31 1.049094269964E-01 2.136480880798E-02 4.174060804183E-01
H32 -1.573860359423E-01 2.031573929291E-01 -1.245350494191E-01
C33 -2.027389997557E-01 3.958572070970E-01 -2.397689430249E-01
H34 -2.626887586718E-01 -4.340142778091E-01 -3.709849603832E-01
H35 2.779948560750E-01 -2.861057615536E-02 2.333830603953E-01
C36 2.093311824792E-01 -2.470838151033E-01 2.010583613240E-01
H37 3.929105161481E-01 -3.883204160018E-01 4.815133135187E-01
C38 2.762050821595E-01 -4.503283819035E-01 3.392285988150E-01
H39 -5.152971643601E-02 2.603012568661E-01 -4.942521012401E-01
H40 -1.465800897222E-01 4.704982870397E-01 -1.901286006896E-01
H41 1.550344208582E-01 -2.066185136644E-01 1.232010543923E-01
C42 2.093125479510E-01 -3.993063051341E-01 2.382553279734E-01
H43 2.756160881168E-01 4.320070189222E-01 3.698544183803E-01
H44 1.563694220855E-01 -4.768899619159E-01 1.889024879217E-01
C45 -4.741300920333E-02 -3.333390794762E-01 -2.150755502051E-02
C46 9.323377084135E-02 -4.237640666101E-01 -6.808898496988E-02
C47 -9.486747724507E-02 -1.640854639392E-01 -3.432439277238E-02
C48 -1.446135499985E-01 -4.101388804149E-01 4.500323840393E-02
C49 1.397492679628E-01 4.110090993595E-01 -4.835268105704E-02
C50 1.968638633747E-01 -3.460857300937E-01 -1.351990652747E-01
H51 -2.136480880799E-02 -1.049094269964E-01 -8.259391958169E-02
C52 -2.276483020512E-01 -7.674091459912E-02 1.489849281912E-02
C53 -9.836195037899E-02 4.246232510729E-01 6.437344454588E-02
C54 -2.831419830695E-01 -3.133938206258E-01 9.425745688616E-02
C55 2.797466666603E-01 3.143219292152E-01 -9.587742192734E-02
C56 4.438269089892E-02 3.347995562398E-01 2.012647837870E-02
C57 1.467860961714E-01 -2.777636695754E-01 -2.365530070954E-01
C58 3.493500620369E-01 -3.428965704089E-01 -9.789196019519E-02
H59 -2.603012568661E-01 5.152971643602E-02 5.747898759890E-03
C60 -3.232724909820E-01 -1.523907705075E-01 8.006193770420E-02
C61 -2.006185410578E-01 3.466025486048E-01 1.323960832956E-01
H62 -3.562262569954E-01 -3.698198748261E-01 1.448028763548E-01
H63 3.496839358175E-01 3.694577337316E-01 -1.497984947137E-01
C64 3.268496104560E-01 1.552136570244E-01 -7.456861999443E-02
C65 9.827791830777E-02 1.672316456335E-01 3.959724784685E-02
H66 2.861057615535E-02 -2.779948560749E-01 -2.666169396047E-01
C67 2.470838151033E-01 -2.093311824792E-01 -2.989416386760E-01
H68 3.883204160018E-01 -3.929105161480E-01 -1.848668648133E-02
C69 4.503283819035E-01 -2.762050821595E-01 -1.607714011850E-01
H70 -4.270759268628E-01 -8.133547181683E-02 1.197968202140E-01
C71 -1.489123806608E-01 2.818274322636E-01 2.344183907093E-01
C72 -3.518154782769E-01 3.379404814910E-01 9.551982199433E-02
H73 4.331073066783E-01 8.442061303318E-02 -1.117914195309E-01
C74 2.354316640935E-01 8.084148457782E-02 -5.075525143912E-03
H75 2.705995787638E-02 1.083487405136E-01 9.001783837239E-02
H76 2.066185136644E-01 -1.550344208582E-01 -3.767989456077E-01
C77 3.993063051341E-01 -2.093125479510E-01 -2.617446720266E-01
H78 -4.320070189223E-01 -2.756160881168E-01 -1.301455816197E-01
H79 -3.197747361931E-02 2.870590728661E-01 2.643724183578E-01
C80 -2.452937651092E-01 2.094411913690E-01 2.973055963585E-01
H81 -3.923350052120E-01 3.856396715438E-01 1.584036621526E-02
C82 -4.492462375428E-01 2.677144364087E-01 1.592125300363E-01
H83 2.738890452131E-01 -4.599635074068E-02 1.020300519242E-02
H84 4.768899619158E-01 -1.563694220855E-01 -3.110975120783E-01
H85 -2.031573929291E-01 1.573860359423E-01 3.754649505809E-01
C86 -3.958572070970E-01 2.027389997557E-01 2.602310569751E-01
H87 4.340142778091E-01 2.626887586718E-01 1.290150396168E-01
H88 -4.704982870397E-01 1.465800897222E-01 3.098713993104E-01


#===END
