###############################################################
#
#primitive cell cif file
#
###############################################################

DP910Aposm27_data

_symmetry_space_group_name_H-M 'P 1'
_cell_length_a      8.64136129
_cell_length_b      8.64136129
_cell_length_c      12.29000000
_cell_angle_alpha   89.628883
_cell_angle_beta    90.371117
_cell_angle_gamma   76.418725

loop_
_atom_site_label
_atom_site_fract_x
_atom_site_fract_y
_atom_site_fract_z
C1 -3.340729367851E-01 -4.743158104816E-02 -4.780582232018E-01
C2 -4.239400868286E-01 9.514904988084E-02 -4.333258890575E-01
C3 -1.661687439069E-01 -1.008199757342E-01 -4.601490541251E-01
C4 -4.101257300352E-01 -1.415889466993E-01 4.523268569701E-01
C5 4.110222497393E-01 1.427738712621E-01 -4.543172235690E-01
C6 -3.461649247554E-01 1.980890870835E-01 -3.655730646352E-01
H7 -1.070751394455E-01 -3.149515620044E-02 -4.082311824520E-01
C8 -7.943553544341E-02 -2.341211094612E-01 4.907063800271E-01
C9 4.244472308545E-01 -9.644667133950E-02 4.342116814267E-01
C10 -3.133725864079E-01 -2.778189803242E-01 4.005032581821E-01
C11 3.143431634331E-01 2.850696694056E-01 -4.093618630043E-01
C12 3.340656989309E-01 4.436411905408E-02 4.803077433990E-01
C13 -2.779397539140E-01 1.469328376102E-01 -2.643167456821E-01
C14 -3.422056554233E-01 3.508016322826E-01 -4.021335604466E-01
H15 4.775872119609E-02 -2.713708151130E-01 -4.956811055614E-01
C16 -1.535557887260E-01 -3.228435440670E-01 4.188194317533E-01
C17 3.465233539430E-01 -1.993933173489E-01 3.668317867945E-01
H18 -3.691388969616E-01 -3.458318010556E-01 3.454236154469E-01
H19 3.701387115961E-01 3.600783917572E-01 -3.599750134846E-01
C20 1.540486388060E-01 3.272785573711E-01 -4.265500105481E-01
C21 1.651483656657E-01 9.232541981866E-02 4.659293052557E-01
H22 -2.789921688499E-01 2.885286673624E-02 -2.344685628241E-01
C23 -2.081386104056E-01 2.458199992071E-01 -2.016795247913E-01
H24 -3.917894959044E-01 3.907634592684E-01 -4.814841280203E-01
C25 -2.747982720458E-01 4.506810289963E-01 -3.387212047515E-01
H26 -8.235286284188E-02 -4.254323707497E-01 3.778124465206E-01
C27 2.816513479249E-01 -1.487656392220E-01 2.647118565132E-01
C28 3.386313964766E-01 -3.503639080311E-01 4.044546573639E-01
H29 8.340322200813E-02 4.347508627914E-01 -3.905993137344E-01
C30 7.814686373352E-02 2.289588566836E-01 -4.893196020099E-01
H31 1.061830280645E-01 1.692961048393E-02 4.191570595939E-01
H32 -1.536945111734E-01 2.042530670554E-01 -1.240564511633E-01
C33 -2.073518584470E-01 3.981848870575E-01 -2.381516582045E-01
H34 -2.737858051599E-01 -4.314361293732E-01 -3.687520834262E-01
H35 2.860617600911E-01 -3.173518303842E-02 2.345420792135E-01
C36 2.106337634426E-01 -2.465575810055E-01 2.020732401741E-01
H37 3.867606917874E-01 -3.898919619454E-01 4.841888192831E-01
C38 2.691212465224E-01 -4.488935904499E-01 3.412948640272E-01
H39 -4.976734598062E-02 2.628194869662E-01 4.998637880061E-01
H40 -1.535264526057E-01 4.747662908310E-01 -1.885673349205E-01
H41 1.587259456271E-01 -2.055228395380E-01 1.236796526481E-01
C42 2.046996892597E-01 -3.969786251735E-01 2.398726127938E-01
H43 2.645190416286E-01 4.345851673581E-01 3.720872953373E-01
H44 1.494230592020E-01 -4.726219581246E-01 1.904637536909E-01
C45 -4.436411905409E-02 -3.340656989309E-01 -1.969225660096E-02
C46 9.644667133949E-02 -4.244472308545E-01 -6.578831857327E-02
C47 -9.232541981867E-02 -1.651483656657E-01 -3.407069474432E-02
C48 -1.427738712621E-01 -4.110222497392E-01 4.568277643104E-02
C49 1.415889466992E-01 4.101257300352E-01 -4.767314302993E-02
C50 1.993933173489E-01 -3.465233539430E-01 -1.331682132055E-01
H51 -1.692961048394E-02 -1.061830280645E-01 -8.084294040612E-02
C52 -2.289588566836E-01 -7.814686373352E-02 1.068039799013E-02
C53 -9.514904988085E-02 4.239400868286E-01 6.667411094248E-02
C54 -2.850696694056E-01 -3.143431634331E-01 9.063813699565E-02
C55 2.778189803242E-01 3.133725864079E-01 -9.949674181785E-02
C56 4.743158104816E-02 3.340729367851E-01 2.194177679825E-02
C57 1.487656392220E-01 -2.816513479249E-01 -2.352881434868E-01
C58 3.503639080311E-01 -3.386313964766E-01 -9.554534263611E-02
H59 -2.628194869662E-01 4.976734598063E-02 -1.362119939267E-04
C60 -3.272785573711E-01 -1.540486388060E-01 7.344998945189E-02
C61 -1.980890870836E-01 3.461649247554E-01 1.344269353648E-01
H62 -3.600783917572E-01 -3.701387115961E-01 1.400249865154E-01
H63 3.458318010556E-01 3.691388969616E-01 -1.545763845531E-01
C64 3.228435440670E-01 1.535557887260E-01 -8.118056824674E-02
C65 1.008199757342E-01 1.661687439069E-01 3.985094587492E-02
H66 3.173518303841E-02 -2.860617600911E-01 -2.654579207865E-01
C67 2.465575810055E-01 -2.106337634426E-01 -2.979267598259E-01
H68 3.898919619454E-01 -3.867606917874E-01 -1.581118071688E-02
C69 4.488935904499E-01 -2.691212465224E-01 -1.587051359728E-01
H70 -4.347508627914E-01 -8.340322200812E-02 1.094006862656E-01
C71 -1.469328376102E-01 2.779397539140E-01 2.356832543179E-01
C72 -3.508016322826E-01 3.422056554233E-01 9.786643955341E-02
H73 4.254323707497E-01 8.235286284189E-02 -1.221875534794E-01
C74 2.341211094611E-01 7.943553544342E-02 -9.293619972899E-03
H75 3.149515620043E-02 1.070751394455E-01 9.176881754796E-02
H76 2.055228395380E-01 -1.587259456271E-01 -3.763203473519E-01
C77 3.969786251735E-01 -2.046996892597E-01 -2.601273872062E-01
H78 -4.345851673581E-01 -2.645190416286E-01 -1.279127046627E-01
H79 -2.885286673625E-02 2.789921688499E-01 2.655314371759E-01
C80 -2.458199992071E-01 2.081386104056E-01 2.983204752087E-01
H81 -3.907634592684E-01 3.917894959045E-01 1.851587197970E-02
C82 -4.506810289963E-01 2.747982720458E-01 1.612787952485E-01
H83 2.713708151130E-01 -4.775872119608E-02 4.318894438607E-03
H84 4.726219581246E-01 -1.494230592020E-01 -3.095362463091E-01
H85 -2.042530670554E-01 1.536945111734E-01 3.759435488367E-01
C86 -3.981848870575E-01 2.073518584470E-01 2.618483417955E-01
H87 4.314361293732E-01 2.737858051599E-01 1.312479165738E-01
H88 -4.747662908310E-01 1.535264526057E-01 3.114326650795E-01


#===END
