###############################################################
#
#primitive cell cif file
#
###############################################################

DP910Aposm22_data

_symmetry_space_group_name_H-M 'P 1'
_cell_length_a      8.64136129
_cell_length_b      8.64136129
_cell_length_c      12.29000000
_cell_angle_alpha   89.628883
_cell_angle_beta    90.371117
_cell_angle_gamma   76.418725

loop_
_atom_site_label
_atom_site_fract_x
_atom_site_fract_y
_atom_site_fract_z
C1 -3.337823492085E-01 -4.373261649206E-02 -4.806287271504E-01
C2 -4.241420206825E-01 9.844313289321E-02 -4.360320348669E-01
C3 -1.648101192973E-01 -9.164031225333E-02 -4.665136705666E-01
C4 -4.103750465799E-01 -1.431748680611E-01 4.545957244934E-01
C5 4.103750465799E-01 1.431748680611E-01 -4.545957244934E-01
C6 -3.463630437268E-01 2.009755827457E-01 -3.679934473824E-01
H7 -1.057048711575E-01 -1.694482337942E-02 -4.192694178325E-01
C8 -7.753673087038E-02 -2.270910697246E-01 4.873998917411E-01
C9 4.241420206825E-01 -9.844313289321E-02 4.360320348669E-01
C10 -3.135347423611E-01 -2.838543507595E-01 4.079424838114E-01
C11 3.135347423611E-01 2.838543507595E-01 -4.079424838114E-01
C12 3.337823492085E-01 4.373261649206E-02 4.806287271504E-01
C13 -2.815872204768E-01 1.478444497379E-01 -2.661994433118E-01
C14 -3.384615174481E-01 3.530131513742E-01 -4.035021243325E-01
H15 5.045921381741E-02 -2.603420421972E-01 4.978589780915E-01
C16 -1.529270493823E-01 -3.248105186813E-01 4.237739542113E-01
C17 3.463630437268E-01 -2.009755827457E-01 3.679934473824E-01
H18 -3.697255136815E-01 -3.585938831493E-01 3.585726717670E-01
H19 3.697255136815E-01 3.585938831493E-01 -3.585726717670E-01
C20 1.529270493823E-01 3.248105186813E-01 -4.237739542113E-01
C21 1.648101192973E-01 9.164031225333E-02 4.665136705666E-01
H22 -2.859449247370E-01 3.004951049662E-02 -2.375462875416E-01
C23 -2.108800275617E-01 2.439708218671E-01 -2.018389579686E-01
H24 -3.858954558324E-01 3.945692992060E-01 -4.830820670775E-01
C25 -2.695426393309E-01 4.500626046165E-01 -3.384800640580E-01
H26 -8.195272224087E-02 -4.310274984413E-01 3.866372558353E-01
C27 2.815872204768E-01 -1.478444497379E-01 2.661994433118E-01
C28 3.384615174481E-01 -3.530131513742E-01 4.035021243325E-01
H29 8.195272224087E-02 4.310274984413E-01 -3.866372558353E-01
C30 7.753673087038E-02 2.270910697246E-01 -4.873998917411E-01
H31 1.057048711575E-01 1.694482337942E-02 4.192694178325E-01
H32 -1.590665974543E-01 2.009758679381E-01 -1.237289332922E-01
C33 -2.053272392125E-01 3.955265059863E-01 -2.374423187573E-01
H34 -2.650338229794E-01 -4.325263553573E-01 -3.676952278264E-01
H35 2.859449247370E-01 -3.004951049662E-02 2.375462875416E-01
C36 2.108800275617E-01 -2.439708218671E-01 2.018389579686E-01
H37 3.858954558324E-01 -3.945692992060E-01 4.830820670775E-01
C38 2.695426393309E-01 -4.500626046165E-01 3.384800640580E-01
H39 -5.045921381741E-02 2.603420421972E-01 -4.978589780915E-01
H40 -1.503565402640E-01 4.699652828223E-01 -1.867923276570E-01
H41 1.590665974543E-01 -2.009758679381E-01 1.237289332922E-01
C42 2.053272392125E-01 -3.955265059863E-01 2.374423187573E-01
H43 2.650338229794E-01 4.325263553573E-01 3.676952278264E-01
H44 1.503565402640E-01 -4.699652828223E-01 1.867923276570E-01
C45 -4.806308361018E-02 -3.343562865075E-01 -2.226276054962E-02
C46 9.315258832713E-02 -4.242452970006E-01 -6.849446438265E-02
C47 -1.015050832995E-01 -1.665069902753E-01 -4.043531118580E-02
C48 -1.411879499002E-01 -4.107729331946E-01 4.795164395440E-02
C49 1.411879499002E-01 4.107729331946E-01 -4.795164395440E-02
C50 1.965068216867E-01 -3.463252349716E-01 -1.355885959527E-01
H51 -3.147994330495E-02 -1.075532963525E-01 -9.188117578655E-02
C52 -2.359888964201E-01 -8.004566830656E-02 7.373909704092E-03
C53 -9.315258832713E-02 4.242452970006E-01 6.849446438265E-02
C54 -2.790342989704E-01 -3.141810074798E-01 9.807736262489E-02
C55 2.790342989704E-01 3.141810074798E-01 -9.807736262489E-02
C56 4.806308361018E-02 3.343562865075E-01 2.226276054962E-02
C57 1.478540270943E-01 -2.780038813622E-01 -2.371708411165E-01
C58 3.481523889395E-01 -3.423755344518E-01 -9.691390652203E-02
H59 -2.738482598820E-01 4.706685335929E-02 -6.596128341044E-03
C60 -3.253115827567E-01 -1.546773781496E-01 7.840451190993E-02
C61 -1.965068216867E-01 3.463252349716E-01 1.355885959527E-01
H62 -3.473163096636E-01 -3.695520948762E-01 1.531740428356E-01
H63 3.473163096636E-01 3.695520948762E-01 -1.531740428356E-01
C64 3.253115827567E-01 1.546773781496E-01 -7.840451190993E-02
C65 1.015050832995E-01 1.665069902753E-01 4.043531118580E-02
H66 3.053853927805E-02 -2.791090042041E-01 -2.685356455041E-01
C67 2.484067583454E-01 -2.078923462865E-01 -2.980861930032E-01
H68 3.860861220077E-01 -3.926547318594E-01 -1.740911977405E-02
C69 4.495120148298E-01 -2.743768792373E-01 -1.584639952793E-01
H70 -4.291557350998E-01 -8.380336260914E-02 1.182254955803E-01
C71 -1.478540270943E-01 2.780038813622E-01 2.371708411165E-01
C72 -3.481523889395E-01 3.423755344518E-01 9.691390652203E-02
H73 4.291557350998E-01 8.380336260914E-02 -1.182254955803E-01
C74 2.359888964201E-01 8.004566830656E-02 -7.373909704092E-03
H75 3.147994330495E-02 1.075532963525E-01 9.188117578655E-02
H76 2.088000386554E-01 -1.533538593462E-01 -3.759928294808E-01
C77 3.996370062447E-01 -2.067243084942E-01 -2.594180477590E-01
H78 -4.334949413742E-01 -2.732710238090E-01 -1.268558490629E-01
H79 -3.053853927805E-02 2.791090042041E-01 2.685356455041E-01
C80 -2.484067583454E-01 2.078923462865E-01 2.980861930032E-01
H81 -3.860861220077E-01 3.926547318594E-01 1.740911977405E-02
C82 -4.495120148298E-01 2.743768792373E-01 1.584639952793E-01
H83 2.738482598820E-01 -4.706685335929E-02 6.596128341044E-03
H84 4.774229661332E-01 -1.525929715436E-01 -3.077612390457E-01
H85 -2.088000386554E-01 1.533538593462E-01 3.759928294808E-01
C86 -3.996370062447E-01 2.067243084942E-01 2.594180477590E-01
H87 4.334949413742E-01 2.732710238090E-01 1.268558490629E-01
H88 -4.774229661332E-01 1.525929715436E-01 3.077612390457E-01


#===END
