###############################################################
#
#primitive cell cif file
#
###############################################################

DP910Anegm16_data

_symmetry_space_group_name_H-M 'P 1'
_cell_length_a      8.64136129
_cell_length_b      8.64136129
_cell_length_c      12.29000000
_cell_angle_alpha   89.628883
_cell_angle_beta    90.371117
_cell_angle_gamma   76.418725

loop_
_atom_site_label
_atom_site_fract_x
_atom_site_fract_y
_atom_site_fract_z
C1 -3.373492395133E-01 -4.678346138084E-02 -4.756482495697E-01
C2 -4.275601528260E-01 9.486832732080E-02 -4.300043676824E-01
C3 -1.685095282720E-01 -9.641440439653E-02 -4.611857969376E-01
C4 -4.138580943137E-01 -1.428601334465E-01 4.567416284896E-01
C5 4.072898854607E-01 1.415026845148E-01 -4.499024520495E-01
C6 -3.479522738969E-01 1.987668923549E-01 -3.645595156943E-01
H7 -1.091195096244E-01 -2.457331708706E-02 -4.116944423820E-01
C8 -8.137550597767E-02 -2.292472144955E-01 4.894472209920E-01
C9 4.208271648571E-01 -9.672739389954E-02 4.375332028018E-01
C10 -3.170444109462E-01 -2.803139256545E-01 4.063344202309E-01
C11 3.106713388948E-01 2.825747240753E-01 -4.035307009556E-01
C12 3.307893962027E-01 4.501223872141E-02 4.827177170311E-01
C13 -2.757105593749E-01 1.485663303444E-01 -2.642045989069E-01
C14 -3.427054574249E-01 3.498025526428E-01 -4.036644547211E-01
H15 4.654386900497E-02 -2.635449893888E-01 4.999252243270E-01
C16 -1.564460590591E-01 -3.221992522345E-01 4.217564606101E-01
C17 3.447360048016E-01 -1.987155120775E-01 3.678453357353E-01
H18 -3.731491483049E-01 -3.513969663194E-01 3.540112195543E-01
H19 3.661284602528E-01 3.545132264934E-01 -3.513874093772E-01
C20 1.511583684728E-01 3.279228492035E-01 -4.236129816912E-01
C21 1.628075813007E-01 9.673099115631E-02 4.648925624432E-01
H22 -2.779826933053E-01 3.165945644200E-02 -2.326095203484E-01
C23 -1.996547795836E-01 2.463767255319E-01 -2.051354182425E-01
H24 -3.955536870984E-01 3.889049107419E-01 -4.823439647662E-01
C25 -2.688648484562E-01 4.485993405601E-01 -3.438683186293E-01
H26 -8.523374091786E-02 -4.252181740530E-01 3.811984664620E-01
C27 2.838805424641E-01 -1.471321464878E-01 2.648240032884E-01
C28 3.381315944749E-01 -3.513629876710E-01 4.029237630894E-01
H29 8.052234393215E-02 4.349650594882E-01 -3.872132937930E-01
C30 7.620689319926E-02 2.338327516492E-01 -4.905787610449E-01
H31 1.041386578856E-01 2.385144959730E-02 4.156937996639E-01
H32 -1.422226400258E-01 2.055604523518E-01 -1.281793836957E-01
C33 -1.965857380822E-01 3.968532730852E-01 -2.444761849782E-01
H34 -2.664650036924E-01 -4.350082103514E-01 -3.759751026201E-01
H35 2.870712356358E-01 -2.892859333266E-02 2.364011216891E-01
C36 2.191175942646E-01 -2.460008546806E-01 1.986173467229E-01
H37 3.829965005934E-01 -3.917505104719E-01 4.833289825372E-01
C38 2.750546701120E-01 -4.509752788862E-01 3.361477501494E-01
H39 -5.098219817174E-02 2.706453126904E-01 4.954701178944E-01
H40 -1.377116379515E-01 4.725900999982E-01 -1.976473474278E-01
H41 1.701978167747E-01 -2.042154542417E-01 1.195567201157E-01
C42 2.154658096245E-01 -3.983102391459E-01 2.335480860201E-01
H43 2.718398430961E-01 4.310130863799E-01 3.648642761434E-01
H44 1.652378738562E-01 -4.747981489574E-01 1.813837411836E-01
C45 -4.501223872142E-02 -3.307893962027E-01 -1.728228296894E-02
C46 9.672739389953E-02 -4.208271648571E-01 -6.246679719820E-02
C47 -9.673099115632E-02 -1.628075813007E-01 -3.510743755682E-02
C48 -1.415026845148E-01 -4.072898854607E-01 5.009754795053E-02
C49 1.428601334465E-01 4.138580943137E-01 -4.325837151044E-02
C50 1.987155120775E-01 -3.447360048015E-01 -1.321546642647E-01
H51 -2.385144959731E-02 -1.041386578856E-01 -8.430620033608E-02
C52 -2.338327516492E-01 -7.620689319926E-02 9.421238955066E-03
C53 -9.486832732081E-02 4.275601528260E-01 6.999563231756E-02
C54 -2.825747240753E-01 -3.106713388948E-01 9.646929904440E-02
C55 2.803139256545E-01 3.170444109462E-01 -9.366557976910E-02
C56 4.678346138083E-02 3.373492395133E-01 2.435175043026E-02
C57 1.471321464878E-01 -2.838805424640E-01 -2.351759967116E-01
C58 3.513629876710E-01 -3.381315944749E-01 -9.707623691060E-02
H59 -2.706453126904E-01 5.098219817174E-02 -4.529882105572E-03
C60 -3.279228492035E-01 -1.511583684728E-01 7.638701830876E-02
C61 -1.987668923549E-01 3.479522738969E-01 1.354404843057E-01
H62 -3.545132264934E-01 -3.661284602528E-01 1.486125906228E-01
H63 3.513969663194E-01 3.731491483049E-01 -1.459887804457E-01
C64 3.221992522345E-01 1.564460590591E-01 -7.824353938986E-02
C65 9.641440439652E-02 1.685095282720E-01 3.881420306242E-02
H66 2.892859333265E-02 -2.870712356357E-01 -2.635988783109E-01
C67 2.460008546806E-01 -2.191175942646E-01 -3.013826532771E-01
H68 3.917505104719E-01 -3.829965005934E-01 -1.667101746278E-02
C69 4.509752788862E-01 -2.750546701119E-01 -1.638522498506E-01
H70 -4.349650594882E-01 -8.052234393214E-02 1.127867062070E-01
C71 -1.485663303444E-01 2.757105593749E-01 2.357954010931E-01
C72 -3.498025526428E-01 3.427054574249E-01 9.633554527892E-02
H73 4.252181740530E-01 8.523374091787E-02 -1.188015335380E-01
C74 2.292472144955E-01 8.137550597768E-02 -1.055277900796E-02
H75 2.457331708706E-02 1.091195096244E-01 8.830555761800E-02
H76 2.042154542417E-01 -1.701978167746E-01 -3.804432798843E-01
C77 3.983102391458E-01 -2.154658096245E-01 -2.664519139799E-01
H78 -4.310130863799E-01 -2.718398430961E-01 -1.351357238566E-01
H79 -3.165945644201E-02 2.779826933053E-01 2.673904796516E-01
C80 -2.463767255319E-01 1.996547795836E-01 2.948645817575E-01
H81 -3.889049107419E-01 3.955536870984E-01 1.765603523381E-02
C82 -4.485993405601E-01 2.688648484563E-01 1.561316813707E-01
H83 2.635449893888E-01 -4.654386900496E-02 -7.477567303781E-05
H84 4.747981489574E-01 -1.652378738562E-01 -3.186162588164E-01
H85 -2.055604523518E-01 1.422226400258E-01 3.718206163043E-01
C86 -3.968532730852E-01 1.965857380822E-01 2.555238150218E-01
H87 4.350082103514E-01 2.664650036924E-01 1.240248973799E-01
H88 -4.725900999982E-01 1.377116379515E-01 3.023526525722E-01


#===END
