###############################################################
#
#primitive cell cif file
#
###############################################################

DP910Anegm25_data

_symmetry_space_group_name_H-M 'P 1'
_cell_length_a      8.64136129
_cell_length_b      8.64136129
_cell_length_c      12.29000000
_cell_angle_alpha   89.628883
_cell_angle_beta    90.371117
_cell_angle_gamma   76.418725

loop_
_atom_site_label
_atom_site_fract_x
_atom_site_fract_y
_atom_site_fract_z
C1 -3.327913428158E-01 -4.627442450544E-02 -4.795746486570E-01
C2 -4.232003382050E-01 9.442267577367E-02 -4.331110945622E-01
C3 -1.637421973330E-01 -9.431420598986E-02 -4.659564130881E-01
C4 -4.096389867003E-01 -1.437590436549E-01 4.541317920029E-01
C5 4.115089930741E-01 1.406037743064E-01 -4.525122885361E-01
C6 -3.460357859821E-01 1.978091925798E-01 -3.654433792412E-01
H7 -1.045235356205E-01 -2.033468841439E-02 -4.181236049136E-01
C8 -7.673942033822E-02 -2.286866992456E-01 4.865384203097E-01
C9 4.251869794780E-01 -9.717304544667E-02 4.344264759220E-01
C10 -3.130920185469E-01 -2.835509929248E-01 4.062091562578E-01
C11 3.146237312941E-01 2.793376568050E-01 -4.036559649287E-01
C12 3.353472929003E-01 4.552127559680E-02 4.787913179438E-01
C13 -2.777809891207E-01 1.470428161289E-01 -2.641771779428E-01
C14 -3.439443018449E-01 3.510110960632E-01 -4.019380372607E-01
H15 5.128820573576E-02 -2.621674971947E-01 4.966640887790E-01
C16 -1.524536486465E-01 -3.248688910108E-01 4.218740272281E-01
C17 3.466524927163E-01 -1.996732118526E-01 3.669614721885E-01
H18 -3.693506335194E-01 -3.568291009242E-01 3.556859469536E-01
H19 3.699269750383E-01 3.490810918886E-01 -3.497126819778E-01
C20 1.551507788855E-01 3.252532104272E-01 -4.234954150733E-01
C21 1.675749122397E-01 9.883118956298E-02 4.601219462927E-01
H22 -2.773699911122E-01 2.843749401116E-02 -2.345934152493E-01
C23 -2.104233832754E-01 2.473960637044E-01 -2.010753502198E-01
H24 -3.940014452548E-01 3.904571841352E-01 -4.812547685266E-01
C25 -2.783638897313E-01 4.520187501620E-01 -3.383035176717E-01
H26 -8.157500539081E-02 -4.300267827908E-01 3.835501126113E-01
C27 2.818101127183E-01 -1.486556607033E-01 2.648514242525E-01
C28 3.368927500550E-01 -3.501544442506E-01 4.046501805497E-01
H29 8.418107945920E-02 4.301564507504E-01 -3.848616476437E-01
C30 8.084297883872E-02 2.343932668991E-01 -4.934875617273E-01
H31 1.087346318895E-01 2.809007826998E-02 4.092646371323E-01
H32 -1.561268754890E-01 2.063789644885E-01 -1.233281267811E-01
C33 -2.115499888078E-01 4.003183600412E-01 -2.374055580288E-01
H34 -2.784265247244E-01 -4.298324173991E-01 -3.683062891236E-01
H35 2.876839378289E-01 -3.215055576350E-02 2.344172267882E-01
C36 2.083489905728E-01 -2.449815165081E-01 2.026774147456E-01
H37 3.845487424370E-01 -3.901982370786E-01 4.844181787769E-01
C38 2.655556288369E-01 -4.475558692842E-01 3.417125511070E-01
H39 -4.623786144095E-02 2.720228048845E-01 4.922089823464E-01
H40 -1.593593118094E-01 4.779211641664E-01 -1.875412781097E-01
H41 1.562935813115E-01 -2.033969421049E-01 1.244079770303E-01
C42 2.005015588989E-01 -3.948451521898E-01 2.406187129695E-01
H43 2.598783220641E-01 4.361888793322E-01 3.725330896399E-01
H44 1.435901999984E-01 -4.694670847892E-01 1.914898105017E-01
C45 -4.627442450545E-02 -3.327913428158E-01 -2.042535134304E-02
C46 9.442267577366E-02 -4.232003382050E-01 -6.688890543778E-02
C47 -9.431420598987E-02 -1.637421973330E-01 -3.404358691193E-02
C48 -1.437590436549E-01 -4.096389867003E-01 4.586820799708E-02
C49 1.406037743064E-01 4.115089930741E-01 -4.748771146389E-02
C50 1.978091925798E-01 -3.460357859821E-01 -1.345566207588E-01
H51 -2.033468841440E-02 -1.045235356205E-01 -8.187639508642E-02
C52 -2.286866992456E-01 -7.673942033821E-02 1.346157969031E-02
C53 -9.717304544667E-02 4.251869794780E-01 6.557352407797E-02
C54 -2.835509929248E-01 -3.130920185469E-01 9.379084374216E-02
C55 2.793376568050E-01 3.146237312941E-01 -9.634403507135E-02
C56 4.552127559680E-02 3.353472929003E-01 2.120868205617E-02
C57 1.470428161289E-01 -2.777809891206E-01 -2.358228220572E-01
C58 3.510110960631E-01 -3.439443018449E-01 -9.806196273926E-02
H59 -2.621674971947E-01 5.128820573577E-02 3.335911221032E-03
C60 -3.248688910108E-01 -1.524536486465E-01 7.812597277189E-02
C61 -1.996732118526E-01 3.466524927163E-01 1.330385278115E-01
H62 -3.568291009242E-01 -3.693506335194E-01 1.443140530464E-01
H63 3.490810918886E-01 3.699269750383E-01 -1.502873180222E-01
C64 3.252532104272E-01 1.551507788855E-01 -7.650458492674E-02
C65 9.883118956297E-02 1.675749122397E-01 3.987805370731E-02
H66 2.843749401115E-02 -2.773699911122E-01 -2.654065847507E-01
C67 2.473960637044E-01 -2.104233832754E-01 -2.989246497802E-01
H68 3.904571841352E-01 -3.940014452548E-01 -1.874523147345E-02
C69 4.520187501620E-01 -2.783638897313E-01 -1.616964823283E-01
H70 -4.300267827908E-01 -8.157500539080E-02 1.164498873887E-01
C71 -1.486556607033E-01 2.818101127183E-01 2.351485757475E-01
C72 -3.501544442506E-01 3.368927500550E-01 9.534981945026E-02
H73 4.301564507504E-01 8.418107945921E-02 -1.151383523563E-01
C74 2.343932668991E-01 8.084297883873E-02 -6.512438272718E-03
H75 2.809007826997E-02 1.087346318895E-01 9.073536286766E-02
H76 2.063789644885E-01 -1.561268754890E-01 -3.766718732189E-01
C77 4.003183600412E-01 -2.115499888078E-01 -2.625944419712E-01
H78 -4.298324173991E-01 -2.784265247244E-01 -1.316937108764E-01
H79 -3.215055576351E-02 2.876839378289E-01 2.655827732118E-01
C80 -2.449815165081E-01 2.083489905728E-01 2.973225852544E-01
H81 -3.901982370786E-01 3.845487424370E-01 1.558182122314E-02
C82 -4.475558692842E-01 2.655556288369E-01 1.582874488930E-01
H83 2.720228048845E-01 -4.623786144094E-02 7.791017653565E-03
H84 4.779211641663E-01 -1.593593118093E-01 -3.124587218903E-01
H85 -2.033969421049E-01 1.562935813115E-01 3.755920229697E-01
C86 -3.948451521898E-01 2.005015588989E-01 2.593812870305E-01
H87 4.361888793322E-01 2.598783220641E-01 1.274669103601E-01
H88 -4.694670847892E-01 1.435901999984E-01 3.085101894983E-01


#===END
