###############################################################
#
#primitive cell cif file
#
###############################################################

DP910Anegm26_data

_symmetry_space_group_name_H-M 'P 1'
_cell_length_a      8.64136129
_cell_length_b      8.64136129
_cell_length_c      12.29000000
_cell_angle_alpha   89.628883
_cell_angle_beta    90.371117
_cell_angle_gamma   76.418725

loop_
_atom_site_label
_atom_site_fract_x
_atom_site_fract_y
_atom_site_fract_z
C1 -3.339378925806E-01 -4.675457296916E-02 -4.791388896043E-01
C2 -4.234053986857E-01 9.558413853901E-02 -4.339808927777E-01
C3 -1.655179730938E-01 -9.836967908807E-02 -4.631299470777E-01
C4 -4.112080623213E-01 -1.426294550050E-01 4.535334726438E-01
C5 4.112080623213E-01 1.426294550050E-01 -4.535334726438E-01
C6 -3.457790563832E-01 1.987310528950E-01 -3.663288190516E-01
H7 -1.058803791509E-01 -2.593834612596E-02 -4.143067256840E-01
C8 -7.924779769452E-02 -2.340566136816E-01 4.903250552836E-01
C9 4.234053986857E-01 -9.558413853901E-02 4.339808927777E-01
C10 -3.149076727480E-01 -2.822418705782E-01 4.051544136992E-01
C11 3.149076727480E-01 2.822418705782E-01 -4.051544136992E-01
C12 3.339378925806E-01 4.675457296916E-02 4.791388896043E-01
C13 -2.757795498356E-01 1.466542241864E-01 -2.657515611068E-01
C14 -3.452541815655E-01 3.529203504267E-01 -4.017257024069E-01
H15 4.832050929675E-02 -2.702099526152E-01 -4.974043176040E-01
C16 -1.549171931333E-01 -3.270335857866E-01 4.230484474523E-01
C17 3.457790563832E-01 -1.987310528950E-01 3.663288190516E-01
H18 -3.709012755368E-01 -3.531730860110E-01 3.526706457832E-01
H19 3.709012755368E-01 3.531730860110E-01 -3.526706457832E-01
C20 1.549171931333E-01 3.270335857866E-01 -4.230484474523E-01
C21 1.655179730938E-01 9.836967908807E-02 4.631299470777E-01
H22 -2.744468139877E-01 2.744359685487E-02 -2.369347250421E-01
C23 -2.084946006493E-01 2.465059483099E-01 -2.021700199439E-01
H24 -3.959296856648E-01 3.932949333290E-01 -4.807180597143E-01
C25 -2.800526532204E-01 4.536501439171E-01 -3.375342115028E-01
H26 -8.458617457412E-02 -4.323280879078E-01 3.844563007008E-01
C27 2.757795498356E-01 -1.466542241864E-01 2.657515611068E-01
C28 3.452541815655E-01 -3.529203504267E-01 4.017257024069E-01
H29 8.458617457412E-02 4.323280879078E-01 -3.844563007008E-01
C30 7.924779769452E-02 2.340566136816E-01 -4.903250552836E-01
H31 1.058803791509E-01 2.593834612596E-02 4.143067256840E-01
H32 -1.531122580086E-01 2.045343308413E-01 -1.248956360239E-01
C33 -2.115043580013E-01 4.004985152499E-01 -2.373367714743E-01
H34 -2.815108268514E-01 -4.273911397283E-01 -3.666279816997E-01
H35 2.744468139877E-01 -2.744359685487E-02 2.369347250421E-01
C36 2.084946006493E-01 -2.465059483099E-01 2.021700199439E-01
H37 3.959296856648E-01 -3.932949333290E-01 4.807180597143E-01
C38 2.800526532204E-01 -4.536501439171E-01 3.375342115028E-01
H39 -4.832050929675E-02 2.702099526152E-01 4.974043176040E-01
H40 -1.593832403157E-01 4.777741495154E-01 -1.871291901159E-01
H41 1.531122580086E-01 -2.045343308413E-01 1.248956360239E-01
C42 2.115043580013E-01 -4.004985152499E-01 2.373367714743E-01
H43 2.815108268514E-01 4.273911397283E-01 3.666279816997E-01
H44 1.593832403157E-01 -4.777741495154E-01 1.871291901159E-01
C45 -4.675457296917E-02 -3.339378925806E-01 -2.086111039571E-02
C46 9.558413853901E-02 -4.234053986857E-01 -6.601910722235E-02
C47 -9.836967908807E-02 -1.655179730938E-01 -3.687005292232E-02
C48 -1.426294550050E-01 -4.112080623213E-01 4.646652735622E-02
C49 1.426294550050E-01 4.112080623213E-01 -4.646652735622E-02
C50 1.987310528950E-01 -3.457790563832E-01 -1.336711809484E-01
H51 -2.593834612597E-02 -1.058803791509E-01 -8.569327431600E-02
C52 -2.340566136816E-01 -7.924779769451E-02 9.674944716432E-03
C53 -9.558413853902E-02 4.234053986857E-01 6.601910722235E-02
C54 -2.822418705782E-01 -3.149076727480E-01 9.484558630083E-02
C55 2.822418705782E-01 3.149076727480E-01 -9.484558630083E-02
C56 4.675457296916E-02 3.339378925806E-01 2.086111039571E-02
C57 1.466542241864E-01 -2.757795498356E-01 -2.342484388932E-01
C58 3.529203504267E-01 -3.452541815655E-01 -9.827429759311E-02
H59 -2.702099526152E-01 4.832050929676E-02 -2.595682396007E-03
C60 -3.270335857866E-01 -1.549171931333E-01 7.695155254768E-02
C61 -1.987310528950E-01 3.457790563832E-01 1.336711809484E-01
H62 -3.531730860110E-01 -3.709012755368E-01 1.473293542168E-01
H63 3.531730860109E-01 3.709012755368E-01 -1.473293542168E-01
C64 3.270335857866E-01 1.549171931333E-01 -7.695155254768E-02
C65 9.836967908806E-02 1.655179730938E-01 3.687005292232E-02
H66 2.744359685486E-02 -2.744468139877E-01 -2.630652749579E-01
C67 2.465059483099E-01 -2.084946006493E-01 -2.978299800561E-01
H68 3.932949333290E-01 -3.959296856648E-01 -1.928194028571E-02
C69 4.536501439171E-01 -2.800526532204E-01 -1.624657884972E-01
H70 -4.323280879078E-01 -8.458617457411E-02 1.155436992992E-01
C71 -1.466542241865E-01 2.757795498356E-01 2.342484388932E-01
C72 -3.529203504268E-01 3.452541815655E-01 9.827429759311E-02
H73 4.323280879078E-01 8.458617457413E-02 -1.155436992992E-01
C74 2.340566136816E-01 7.924779769453E-02 -9.674944716432E-03
H75 2.593834612595E-02 1.058803791509E-01 8.569327431600E-02
H76 2.045343308413E-01 -1.531122580086E-01 -3.751043639761E-01
C77 4.004985152499E-01 -2.115043580013E-01 -2.626632285257E-01
H78 -4.273911397283E-01 -2.815108268514E-01 -1.333720183003E-01
H79 -2.744359685488E-02 2.744468139877E-01 2.630652749579E-01
C80 -2.465059483099E-01 2.084946006493E-01 2.978299800561E-01
H81 -3.932949333290E-01 3.959296856648E-01 1.928194028571E-02
C82 -4.536501439171E-01 2.800526532204E-01 1.624657884972E-01
H83 2.702099526152E-01 -4.832050929674E-02 2.595682396007E-03
H84 4.777741495154E-01 -1.593832403157E-01 -3.128708098841E-01
H85 -2.045343308413E-01 1.531122580086E-01 3.751043639761E-01
C86 -4.004985152499E-01 2.115043580013E-01 2.626632285257E-01
H87 4.273911397282E-01 2.815108268514E-01 1.333720183003E-01
H88 -4.777741495154E-01 1.593832403157E-01 3.128708098841E-01


#===END
