###############################################################
#
#primitive cell cif file
#
###############################################################

DP910Aposm8_data

_symmetry_space_group_name_H-M 'P 1'
_cell_length_a      8.64136129
_cell_length_b      8.64136129
_cell_length_c      12.29000000
_cell_angle_alpha   89.628883
_cell_angle_beta    90.371117
_cell_angle_gamma   76.418725

loop_
_atom_site_label
_atom_site_fract_x
_atom_site_fract_y
_atom_site_fract_z
C1 -3.346663097034E-01 -4.753246308481E-02 -4.771979808160E-01
C2 -4.250052846616E-01 9.425746667678E-02 -4.319697835215E-01
C3 -1.665996730329E-01 -9.931855571537E-02 -4.594416525272E-01
C4 -4.104663704455E-01 -1.425349890100E-01 4.537314455390E-01
C5 4.104663704455E-01 1.425349890100E-01 -4.537314455390E-01
C6 -3.466506748188E-01 1.944397358317E-01 -3.624425473295E-01
H7 -1.077250402719E-01 -2.728871637799E-02 -4.097021569474E-01
C8 -7.953814725094E-02 -2.348059803762E-01 4.943148293741E-01
C9 4.250052846616E-01 -9.425746667678E-02 4.319697835215E-01
C10 -3.136772363831E-01 -2.826644739082E-01 4.064336714926E-01
C11 3.136772363831E-01 2.826644739082E-01 -4.064336714926E-01
C12 3.346663097034E-01 4.753246308481E-02 4.771979808160E-01
C13 -2.811391175081E-01 1.396633548775E-01 -2.610704493610E-01
C14 -3.361464635744E-01 3.457769169677E-01 -3.978886366881E-01
H15 4.780092658987E-02 -2.708118515467E-01 -4.923928188697E-01
C16 -1.540846315432E-01 -3.277987598526E-01 4.261515040185E-01
C17 3.466506748188E-01 -1.944397358317E-01 3.624425473295E-01
H18 -3.690439177720E-01 -3.536376430139E-01 3.534440311858E-01
H19 3.690439177720E-01 3.536376430139E-01 -3.534440311858E-01
C20 1.540846315432E-01 3.277987598526E-01 -4.261515040185E-01
C21 1.665996730329E-01 9.931855571537E-02 4.594416525272E-01
H22 -2.876104150743E-01 2.262084427046E-02 -2.322038214268E-01
C23 -2.060353839570E-01 2.332242535458E-01 -1.976804795113E-01
H24 -3.848619905751E-01 3.888110716782E-01 -4.770345218707E-01
C25 -2.627435532548E-01 4.401950481321E-01 -3.337724403348E-01
H26 -8.308156423704E-02 -4.334863665388E-01 3.883996592677E-01
C27 2.811391175081E-01 -1.396633548775E-01 2.610704493610E-01
C28 3.361464635743E-01 -3.457769169677E-01 3.978886366881E-01
H29 8.308156423704E-02 4.334863665388E-01 -3.883996592677E-01
C30 7.953814725094E-02 2.348059803762E-01 -4.943148293741E-01
H31 1.077250402719E-01 2.728871637799E-02 4.097021569474E-01
H32 -1.532603962784E-01 1.888868142805E-01 -1.201395814024E-01
C33 -1.967749883700E-01 3.836401856563E-01 -2.335136887686E-01
H34 -2.557560606881E-01 -4.429910138113E-01 -3.630185526571E-01
H35 2.876104150743E-01 -2.262084427046E-02 2.322038214268E-01
C36 2.060353839570E-01 -2.332242535458E-01 1.976804795113E-01
H37 3.848619905751E-01 -3.888110716782E-01 4.770345218707E-01
C38 2.627435532548E-01 -4.401950481321E-01 3.337724403348E-01
H39 -4.780092658987E-02 2.708118515467E-01 4.923928188697E-01
H40 -1.376489044736E-01 4.556259482310E-01 -1.837174820123E-01
H41 1.532603962784E-01 -1.888868142805E-01 1.201395814024E-01
C42 1.967749883700E-01 -3.836401856563E-01 2.335136887686E-01
H43 2.557560606881E-01 4.429910138113E-01 3.630185526571E-01
H44 1.376489044736E-01 -4.556259482310E-01 1.837174820123E-01
C45 -4.426323701744E-02 -3.334723260126E-01 -1.883201421517E-02
C46 9.733825454356E-02 -4.233820330215E-01 -6.443221303725E-02
C47 -9.382683983748E-02 -1.647174365397E-01 -3.336329314647E-02
C48 -1.418278289513E-01 -4.106816093289E-01 4.708736500001E-02
C49 1.418278289513E-01 4.106816093289E-01 -4.708736500001E-02
C50 2.030426686007E-01 -3.460376038796E-01 -1.300376958998E-01
H51 -2.113605030638E-02 -1.055331272381E-01 -8.231391490146E-02
C52 -2.282739857686E-01 -7.804425192600E-02 1.428884733709E-02
C53 -9.733825454356E-02 4.233820330215E-01 6.443221303725E-02
C54 -2.802241758216E-01 -3.140385134579E-01 9.656855030607E-02
C55 2.802241758216E-01 3.140385134579E-01 -9.656855030607E-02
C56 4.426323701744E-02 3.334723260126E-01 1.883201421517E-02
C57 1.560351219547E-01 -2.784519843308E-01 -2.320418471657E-01
C58 3.553886233460E-01 -3.446905883255E-01 -9.130041887758E-02
H59 -2.633784505325E-01 4.972514058684E-02 3.152074697776E-03
C60 -3.223233415855E-01 -1.535197959888E-01 8.078206171711E-02
C61 -2.030426686007E-01 3.460376038796E-01 1.300376958998E-01
H62 -3.522725497990E-01 -3.702336907857E-01 1.480454022543E-01
H63 3.522725497990E-01 3.702336907857E-01 -1.480454022543E-01
C64 3.223233415855E-01 1.535197959888E-01 -8.078206171711E-02
C65 9.382683983748E-02 1.647174365397E-01 3.336329314647E-02
H66 3.796720550420E-02 -2.774435138668E-01 -2.631931793892E-01
C67 2.591533266668E-01 -2.127369898912E-01 -2.939277145458E-01
H68 3.918443495356E-01 -3.936881971167E-01 -1.136157456730E-02
C69 4.593795713142E-01 -2.811759653134E-01 -1.537563715561E-01
H70 -4.266968670023E-01 -8.267452061297E-02 1.199878990127E-01
C71 -1.560351219547E-01 2.784519843308E-01 2.320418471657E-01
C72 -3.553886233460E-01 3.446905883255E-01 9.130041887758E-02
H73 4.266968670023E-01 8.267452061297E-02 -1.199878990127E-01
C74 2.282739857686E-01 7.804425192600E-02 -1.428884733709E-02
H75 2.113605030638E-02 1.055331272381E-01 8.231391490146E-02
H76 2.208890923130E-01 -1.591600605221E-01 -3.724034775911E-01
C77 4.115233265747E-01 -2.152765593367E-01 -2.554894177703E-01
H78 -4.230302829200E-01 -2.825487861005E-01 -1.221791738936E-01
H79 -3.796720550420E-02 2.774435138668E-01 2.631931793892E-01
C80 -2.591533266668E-01 2.127369898912E-01 2.939277145458E-01
H81 -3.918443495356E-01 3.936881971167E-01 1.136157456730E-02
C82 -4.593795713142E-01 2.811759653134E-01 1.537563715561E-01
H83 2.633784505325E-01 -4.972514058684E-02 -3.152074697776E-03
H84 4.917623007246E-01 -1.653006073341E-01 -3.046863934010E-01
H85 -2.208890923130E-01 1.591600605221E-01 3.724034775911E-01
C86 -4.115233265747E-01 2.152765593367E-01 2.554894177703E-01
H87 4.230302829200E-01 2.825487861005E-01 1.221791738936E-01
H88 -4.917623007246E-01 1.653006073341E-01 3.046863934010E-01


#===END
