###############################################################
#
#primitive cell cif file
#
###############################################################

DP910Anegm17_data

_symmetry_space_group_name_H-M 'P 1'
_cell_length_a      8.64136129
_cell_length_b      8.64136129
_cell_length_c      12.29000000
_cell_angle_alpha   89.628883
_cell_angle_beta    90.371117
_cell_angle_gamma   76.418725

loop_
_atom_site_label
_atom_site_fract_x
_atom_site_fract_y
_atom_site_fract_z
C1 -3.342409869589E-01 -4.921802716611E-02 -4.772271240281E-01
C2 -4.243653575532E-01 9.247261868718E-02 -4.319915711824E-01
C3 -1.658242019419E-01 -9.925814314797E-02 -4.610092142758E-01
C4 -4.104551146045E-01 -1.449063912934E-01 4.545499321812E-01
C5 4.106928651700E-01 1.394564266679E-01 -4.520941483579E-01
C6 -3.468226441719E-01 1.968993436074E-01 -3.654798894512E-01
H7 -1.077825278083E-01 -2.738910014149E-02 -4.104604745220E-01
C8 -7.797101438321E-02 -2.321810480800E-01 4.901702979823E-01
C9 4.240219601299E-01 -9.912310253316E-02 4.355459993019E-01
C10 -3.126811558367E-01 -2.818579102530E-01 4.041231965525E-01
C11 3.150345940043E-01 2.810307394768E-01 -4.057419246340E-01
C12 3.338976487571E-01 4.257767293614E-02 4.811388425727E-01
C13 -2.868412903893E-01 1.517802432611E-01 -2.611431972978E-01
C14 -3.356571063611E-01 3.453289082480E-01 -4.065616027171E-01
H15 4.971434037728E-02 -2.671543894773E-01 -4.978791948013E-01
C16 -1.523417561764E-01 -3.241074454582E-01 4.210485946128E-01
C17 3.458656345265E-01 -2.005830608250E-01 3.669249619785E-01
H18 -3.677567926781E-01 -3.524060521000E-01 3.506480611614E-01
H19 3.715208158796E-01 3.535041407129E-01 -3.547505677700E-01
C20 1.552626713556E-01 3.260146559798E-01 -4.243208476886E-01
C21 1.654929076308E-01 9.388725240487E-02 4.650691451050E-01
H22 -2.930878921888E-01 3.661344161710E-02 -2.282061634269E-01
C23 -2.177097510931E-01 2.527024670349E-01 -1.998335418951E-01
H24 -3.799518904035E-01 3.806269945608E-01 -4.879209360057E-01
C25 -2.683479810239E-01 4.469977218872E-01 -3.447904541161E-01
H26 -8.063516559828E-02 -4.269571241939E-01 3.806235620748E-01
C27 2.727498114497E-01 -1.439182335710E-01 2.678854048974E-01
C28 3.451799455388E-01 -3.558366320657E-01 4.000266150934E-01
H29 8.512091925173E-02 4.332261093472E-01 -3.877881981803E-01
C30 7.961138479373E-02 2.308989180647E-01 -4.898556840547E-01
H31 1.054756397017E-01 2.103566654288E-02 4.169277675239E-01
H32 -1.690430214257E-01 2.156462159171E-01 -1.198164801707E-01
C33 -2.089685564061E-01 4.007155595332E-01 -2.411035089736E-01
H34 -2.614532681591E-01 -4.385109369225E-01 -3.783622562187E-01
H35 2.719660367523E-01 -2.397460815756E-02 2.408044786107E-01
C36 2.010626227551E-01 -2.396751131776E-01 2.039192230703E-01
H37 3.985982972883E-01 -4.000284266530E-01 4.777520112977E-01
C38 2.755715375443E-01 -4.525768975591E-01 3.352256146626E-01
H39 -4.781172679942E-02 2.670359126019E-01 4.976656987662E-01
H40 -1.550699442225E-01 4.785837744450E-01 -1.926428182652E-01
H41 1.433774353748E-01 -1.941296906763E-01 1.279196236407E-01
C42 2.030829913007E-01 -3.944479526979E-01 2.369207620248E-01
H43 2.768515786294E-01 4.275103598089E-01 3.624771225447E-01
H44 1.478795675852E-01 -4.688044745106E-01 1.863882703462E-01
C45 -4.257767293615E-02 -3.338976487571E-01 -1.886115742734E-02
C46 9.912310253315E-02 -4.240219601299E-01 -6.445400069811E-02
C47 -9.388725240488E-02 -1.654929076308E-01 -3.493085489500E-02
C48 -1.394564266679E-01 -4.106928651699E-01 4.790585164213E-02
C49 1.449063912934E-01 4.104551146045E-01 -4.545006781884E-02
C50 2.005830608250E-01 -3.458656345265E-01 -1.330750380215E-01
H51 -2.103566654289E-02 -1.054756397017E-01 -8.307223247607E-02
C52 -2.308989180647E-01 -7.961138479372E-02 1.014431594535E-02
C53 -9.247261868719E-02 4.243653575532E-01 6.800842881765E-02
C54 -2.810307394768E-01 -3.150345940043E-01 9.425807536605E-02
C55 2.818579102530E-01 3.126811558367E-01 -9.587680344746E-02
C56 4.921802716610E-02 3.342409869589E-01 2.277287597187E-02
C57 1.439182335710E-01 -2.727498114497E-01 -2.321145951026E-01
C58 3.558366320657E-01 -3.451799455388E-01 -9.997338490659E-02
H59 -2.670359126019E-01 4.781172679943E-02 -2.334301233813E-03
C60 -3.260146559798E-01 -1.552626713556E-01 7.567915231142E-02
C61 -1.968993436074E-01 3.468226441719E-01 1.345201105488E-01
H62 -3.535041407129E-01 -3.715208158796E-01 1.452494322300E-01
H63 3.524060520999E-01 3.677567926781E-01 -1.493519388386E-01
C64 3.241074454582E-01 1.523417561764E-01 -7.895140538721E-02
C65 9.925814314796E-02 1.658242019419E-01 3.899078572423E-02
H66 2.397460815755E-02 -2.719660367522E-01 -2.591955213893E-01
C67 2.396751131776E-01 -2.010626227551E-01 -2.960807769297E-01
H68 4.000284266530E-01 -3.985982972883E-01 -2.224798870233E-02
C69 4.525768975590E-01 -2.755715375443E-01 -1.647743853374E-01
H70 -4.332261093472E-01 -8.512091925172E-02 1.122118018197E-01
C71 -1.517802432611E-01 2.868412903893E-01 2.388568027022E-01
C72 -3.453289082480E-01 3.356571063611E-01 9.343839728292E-02
H73 4.269571241939E-01 8.063516559829E-02 -1.193764379252E-01
C74 2.321810480800E-01 7.797101438322E-02 -9.829702017683E-03
H75 2.738910014148E-02 1.077825278083E-01 8.953952547801E-02
H76 1.941296906763E-01 -1.433774353748E-01 -3.720803763593E-01
C77 3.944479526978E-01 -2.030829913006E-01 -2.630792379752E-01
H78 -4.275103598089E-01 -2.768515786294E-01 -1.375228774553E-01
H79 -3.661344161711E-02 2.930878921888E-01 2.717938365731E-01
C80 -2.527024670350E-01 2.177097510931E-01 3.001664581049E-01
H81 -3.806269945608E-01 3.799518904035E-01 1.207906399425E-02
C82 -4.469977218872E-01 2.683479810239E-01 1.552095458839E-01
H83 2.671543894773E-01 -4.971434037727E-02 2.120805198720E-03
H84 4.688044745106E-01 -1.478795675852E-01 -3.136117296538E-01
H85 -2.156462159171E-01 1.690430214257E-01 3.801835198293E-01
C86 -4.007155595332E-01 2.089685564061E-01 2.588964910264E-01
H87 4.385109369225E-01 2.614532681591E-01 1.216377437813E-01
H88 -4.785837744450E-01 1.550699442225E-01 3.073571817348E-01


#===END
