###############################################################
#
#primitive cell cif file
#
###############################################################

DP910Aposm21_data

_symmetry_space_group_name_H-M 'P 1'
_cell_length_a      8.64136129
_cell_length_b      8.64136129
_cell_length_c      12.29000000
_cell_angle_alpha   89.628883
_cell_angle_beta    90.371117
_cell_angle_gamma   76.418725

loop_
_atom_site_label
_atom_site_fract_x
_atom_site_fract_y
_atom_site_fract_z
C1 -3.324130122509E-01 -4.315027346828E-02 -4.831952717690E-01
C2 -4.222765888960E-01 9.936935638435E-02 -4.386453923142E-01
C3 -1.648146108377E-01 -9.719178645436E-02 -4.639021672618E-01
C4 -4.088914465959E-01 -1.392009596490E-01 4.490420178384E-01
C5 4.122565331786E-01 1.451618583123E-01 -4.576020627006E-01
C6 -3.455419170039E-01 2.010376420861E-01 -3.690464809218E-01
H7 -1.054467620915E-01 -2.514578971632E-02 -4.145243514271E-01
C8 -7.913523406180E-02 -2.359975547895E-01 4.929925143086E-01
C9 4.261107287871E-01 -9.222636483599E-02 4.288921781700E-01
C10 -3.130408418183E-01 -2.813569510288E-01 4.034941220741E-01
C11 3.146749080227E-01 2.815316987010E-01 -4.063709991124E-01
C12 3.357256234652E-01 4.864542663396E-02 4.751706948318E-01
C13 -2.803224289540E-01 1.470755975254E-01 -2.675211852135E-01
C14 -3.409426092065E-01 3.548776207970E-01 -4.028992899263E-01
H15 4.764105338264E-02 -2.748130189298E-01 -4.916212171055E-01
C16 -1.541080487973E-01 -3.292000105786E-01 4.253834667693E-01
C17 3.471463616945E-01 -1.964447623463E-01 3.633583705079E-01
H18 -3.688211049031E-01 -3.525196592166E-01 3.509887207486E-01
H19 3.704565036546E-01 3.533905335962E-01 -3.544099081829E-01
C20 1.534963787347E-01 3.209220908595E-01 -4.199859755321E-01
C21 1.665024987350E-01 9.595360909848E-02 4.621761921190E-01
H22 -2.825463241478E-01 2.819450006358E-02 -2.398758848344E-01
C23 -2.124522006768E-01 2.440654954270E-01 -2.018122284517E-01
H24 -3.889069555332E-01 3.972165807672E-01 -4.822164717231E-01
C25 -2.750106164745E-01 4.527871329202E-01 -3.365250490886E-01
H26 -8.394981632273E-02 -4.374130587561E-01 3.900022920457E-01
C27 2.792686728849E-01 -1.486228793067E-01 2.615074169818E-01
C28 3.398944426934E-01 -3.462879195167E-01 4.036889278842E-01
H29 8.180626852728E-02 4.227701747851E-01 -3.784094682093E-01
C30 7.844716511514E-02 2.270824113553E-01 -4.870334677284E-01
H31 1.078114054185E-01 2.327897696805E-02 4.128638906188E-01
H32 -1.601665411462E-01 2.003005902126E-01 -1.239722895599E-01
C33 -2.103914758644E-01 3.973575901947E-01 -2.356641566274E-01
H34 -2.730734419181E-01 -4.284681221788E-01 -3.644676870070E-01
H35 2.825076047933E-01 -3.239354971109E-02 2.291347572031E-01
C36 2.063201731714E-01 -2.483120847855E-01 2.019405365137E-01
H37 3.896432321587E-01 -3.834388404466E-01 4.834564755803E-01
C38 2.689089020937E-01 -4.467874865261E-01 3.434910196901E-01
H39 -4.988501379406E-02 2.593772831494E-01 -4.960763235381E-01
H40 -1.576087754014E-01 4.724220097857E-01 -1.838977112729E-01
H41 1.522539156543E-01 -2.094753163808E-01 1.237638142515E-01
C42 2.016600718424E-01 -3.978059220363E-01 2.423601143709E-01
H43 2.652314048704E-01 4.375531745525E-01 3.763716917564E-01
H44 1.453407364063E-01 -4.749662391699E-01 1.951333773384E-01
C45 -4.315027346829E-02 -3.324130122509E-01 -1.680472823103E-02
C46 9.936935638434E-02 -4.222765888960E-01 -6.135460768579E-02
C47 -9.719178645437E-02 -1.648146108377E-01 -3.609783273824E-02
C48 -1.392009596490E-01 -4.088914465959E-01 5.095798216157E-02
C49 1.451618583123E-01 4.122565331786E-01 -4.239793729940E-02
C50 2.010376420861E-01 -3.455419170039E-01 -1.309535190782E-01
H51 -2.514578971633E-02 -1.054467620915E-01 -8.547564857286E-02
C52 -2.359975547895E-01 -7.913523406179E-02 7.007485691402E-03
C53 -9.222636483600E-02 4.261107287871E-01 7.110782182996E-02
C54 -2.813569510288E-01 -3.130408418183E-01 9.650587792587E-02
C55 2.815316987010E-01 3.146749080227E-01 -9.362900088764E-02
C56 4.864542663395E-02 3.357256234652E-01 2.482930516818E-02
C57 1.470755975254E-01 -2.803224289540E-01 -2.324788147865E-01
C58 3.548776207970E-01 -3.409426092065E-01 -9.710071007371E-02
H59 -2.748130189298E-01 4.764105338265E-02 -8.378782894480E-03
C60 -3.292000105786E-01 -1.541080487973E-01 7.461653323072E-02
C61 -1.964447623463E-01 3.471463616945E-01 1.366416294921E-01
H62 -3.525196592166E-01 -3.688211049031E-01 1.490112792514E-01
H63 3.533905335962E-01 3.704565036546E-01 -1.455900918171E-01
C64 3.209220908594E-01 1.534963787347E-01 -8.001402446791E-02
C65 9.595360909847E-02 1.665024987350E-01 3.782380788100E-02
H66 2.819450006357E-02 -2.825463241478E-01 -2.601241151656E-01
C67 2.440654954270E-01 -2.124522006768E-01 -2.981877715483E-01
H68 3.972165807672E-01 -3.889069555332E-01 -1.778352827685E-02
C69 4.527871329202E-01 -2.750106164745E-01 -1.634749509114E-01
H70 -4.374130587561E-01 -8.394981632272E-02 1.099977079543E-01
C71 -1.486228793067E-01 2.792686728850E-01 2.384925830182E-01
C72 -3.462879195167E-01 3.398944426934E-01 9.631107211581E-02
H73 4.227701747851E-01 8.180626852729E-02 -1.215905317907E-01
C74 2.270824113552E-01 7.844716511515E-02 -1.296653227163E-02
H75 2.327897696804E-02 1.078114054186E-01 8.713610938122E-02
H76 2.003005902126E-01 -1.601665411462E-01 -3.760277104401E-01
C77 3.973575901947E-01 -2.103914758644E-01 -2.643358433726E-01
H78 -4.284681221788E-01 -2.730734419181E-01 -1.355323129930E-01
H79 -3.239354971110E-02 2.825076047933E-01 2.708652427969E-01
C80 -2.483120847856E-01 2.063201731714E-01 2.980594634863E-01
H81 -3.834388404466E-01 3.896432321587E-01 1.654352441973E-02
C82 -4.467874865261E-01 2.689089020937E-01 1.565089803099E-01
H83 2.593772831494E-01 -4.988501379405E-02 -3.923676461946E-03
H84 4.724220097857E-01 -1.576087754014E-01 -3.161022887271E-01
H85 -2.094753163808E-01 1.522539156543E-01 3.762361857485E-01
C86 -3.978059220363E-01 2.016600718424E-01 2.576398856291E-01
H87 4.375531745525E-01 2.652314048704E-01 1.236283082436E-01
H88 -4.749662391699E-01 1.453407364063E-01 3.048666226616E-01


#===END
