###############################################################
#
#primitive cell cif file
#
###############################################################

DP910Aposm30_data

_symmetry_space_group_name_H-M 'P 1'
_cell_length_a      8.64136129
_cell_length_b      8.64136129
_cell_length_c      12.29000000
_cell_angle_alpha   89.628883
_cell_angle_beta    90.371117
_cell_angle_gamma   76.418725

loop_
_atom_site_label
_atom_site_fract_x
_atom_site_fract_y
_atom_site_fract_z
C1 -3.345214862366E-01 -4.599909702116E-02 -4.788427152217E-01
C2 -4.237365895744E-01 9.533054049456E-02 -4.321364751290E-01
C3 -1.657058368649E-01 -9.537084388485E-02 -4.644359948391E-01
C4 -4.112567236613E-01 -1.423300860356E-01 4.532577066031E-01
C5 4.112567236613E-01 1.423300860356E-01 -4.532577066031E-01
C6 -3.453752547163E-01 1.982854184970E-01 -3.638226357005E-01
H7 -1.065432496664E-01 -2.200120599383E-02 -4.160427825961E-01
C8 -7.868918814844E-02 -2.298570692330E-01 4.881785588646E-01
C9 4.237365895744E-01 -9.533054049456E-02 4.321364751290E-01
C10 -3.146907739874E-01 -2.830602353379E-01 4.065237854222E-01
C11 3.146907739874E-01 2.830602353379E-01 -4.065237854222E-01
C12 3.345214862366E-01 4.599909702116E-02 4.788427152217E-01
C13 -2.781945881241E-01 1.496592561759E-01 -2.616738788564E-01
C14 -3.395691077432E-01 3.500154846350E-01 -4.015351207472E-01
H15 4.929154610645E-02 -2.637264072583E-01 4.986463172845E-01
C16 -1.544581679531E-01 -3.259519223576E-01 4.235687282663E-01
C17 3.453752547163E-01 -1.982854184970E-01 3.638226357005E-01
H18 -3.706587281264E-01 -3.561456146072E-01 3.557067031985E-01
H19 3.706587281264E-01 3.561456146072E-01 -3.557067031985E-01
C20 1.544581679531E-01 3.259519223576E-01 -4.235687282663E-01
C21 1.657058368649E-01 9.537084388485E-02 4.644359948391E-01
H22 -2.798612013866E-01 3.247964449340E-02 -2.303046765994E-01
C23 -2.077993367228E-01 2.495504838044E-01 -2.000907431668E-01
H24 -3.887037208842E-01 3.888830811185E-01 -4.811737669884E-01
C25 -2.711184236120E-01 4.505981371438E-01 -3.394331378369E-01
H26 -8.385816393767E-02 -4.321577333358E-01 3.862262388708E-01
C27 2.781945881241E-01 -1.496592561759E-01 2.616738788564E-01
C28 3.395691077432E-01 -3.500154846350E-01 4.015351207472E-01
H29 8.385816393767E-02 4.321577333358E-01 -3.862262388708E-01
C30 7.868918814844E-02 2.298570692330E-01 -4.881785588646E-01
H31 1.065432496664E-01 2.200120599383E-02 4.160427825961E-01
H32 -1.542391682589E-01 2.091547126298E-01 -1.220229697110E-01
C33 -2.046412324827E-01 4.004811662843E-01 -2.382536737265E-01
H34 -2.688321951740E-01 -4.327146959372E-01 -3.710859276678E-01
H35 2.798612013866E-01 -3.247964449340E-02 2.303046765994E-01
C36 2.077993367228E-01 -2.495504838044E-01 2.000907431668E-01
H37 3.887037208842E-01 -3.888830811185E-01 4.811737669884E-01
C38 2.711184236120E-01 -4.505981371438E-01 3.394331378369E-01
H39 -4.929154610645E-02 2.637264072583E-01 -4.986463172845E-01
H40 -1.500066949793E-01 4.774869369624E-01 -1.896204590711E-01
H41 1.542391682589E-01 -2.091547126298E-01 1.220229697110E-01
C42 2.046412324827E-01 -4.004811662843E-01 2.382536737265E-01
H43 2.688321951740E-01 4.327146959372E-01 3.710859276678E-01
H44 1.500066949793E-01 -4.774869369624E-01 1.896204590711E-01
C45 -4.599909702117E-02 -3.345214862366E-01 -2.115728477832E-02
C46 9.533054049455E-02 -4.237365895744E-01 -6.786352487098E-02
C47 -9.537084388486E-02 -1.657058368649E-01 -3.556400516093E-02
C48 -1.423300860356E-01 -4.112567236613E-01 4.674229339689E-02
C49 1.423300860356E-01 4.112567236614E-01 -4.674229339689E-02
C50 1.982854184970E-01 -3.453752547163E-01 -1.361773642995E-01
H51 -2.200120599384E-02 -1.065432496664E-01 -8.395721740385E-02
C52 -2.298570692330E-01 -7.868918814844E-02 1.182144113536E-02
C53 -9.533054049457E-02 4.237365895744E-01 6.786352487098E-02
C54 -2.830602353379E-01 -3.146907739874E-01 9.347621457778E-02
C55 2.830602353379E-01 3.146907739874E-01 -9.347621457778E-02
C56 4.599909702115E-02 3.345214862366E-01 2.115728477832E-02
C57 1.496592561759E-01 -2.781945881240E-01 -2.383261211436E-01
C58 3.500154846350E-01 -3.395691077432E-01 -9.846487925276E-02
H59 -2.637264072583E-01 4.929154610646E-02 1.353682715545E-03
C60 -3.259519223576E-01 -1.544581679531E-01 7.643127173373E-02
C61 -1.982854184970E-01 3.453752547163E-01 1.361773642995E-01
H62 -3.561456146072E-01 -3.706587281264E-01 1.442932968015E-01
H63 3.561456146072E-01 3.706587281264E-01 -1.442932968015E-01
C64 3.259519223576E-01 1.544581679531E-01 -7.643127173373E-02
C65 9.537084388484E-02 1.657058368649E-01 3.556400516093E-02
H66 3.247964449339E-02 -2.798612013866E-01 -2.696953234006E-01
C67 2.495504838044E-01 -2.077993367228E-01 -2.999092568332E-01
H68 3.888830811185E-01 -3.887037208842E-01 -1.882623301161E-02
C69 4.505981371438E-01 -2.711184236119E-01 -1.605668621631E-01
H70 -4.321577333358E-01 -8.385816393766E-02 1.137737611292E-01
C71 -1.496592561759E-01 2.781945881241E-01 2.383261211436E-01
C72 -3.500154846350E-01 3.395691077432E-01 9.846487925276E-02
H73 4.321577333358E-01 8.385816393768E-02 -1.137737611292E-01
C74 2.298570692330E-01 7.868918814845E-02 -1.182144113536E-02
H75 2.200120599383E-02 1.065432496664E-01 8.395721740385E-02
H76 2.091547126298E-01 -1.542391682588E-01 -3.779770302890E-01
C77 4.004811662843E-01 -2.046412324827E-01 -2.617463262735E-01
H78 -4.327146959372E-01 -2.688321951740E-01 -1.289140723322E-01
H79 -3.247964449340E-02 2.798612013866E-01 2.696953234006E-01
C80 -2.495504838044E-01 2.077993367228E-01 2.999092568332E-01
H81 -3.888830811185E-01 3.887037208842E-01 1.882623301161E-02
C82 -4.505981371438E-01 2.711184236120E-01 1.605668621631E-01
H83 2.637264072583E-01 -4.929154610644E-02 -1.353682715545E-03
H84 4.774869369624E-01 -1.500066949793E-01 -3.103795409289E-01
H85 -2.091547126298E-01 1.542391682589E-01 3.779770302890E-01
C86 -4.004811662843E-01 2.046412324827E-01 2.617463262735E-01
H87 4.327146959371E-01 2.688321951740E-01 1.289140723322E-01
H88 -4.774869369624E-01 1.500066949793E-01 3.103795409289E-01


#===END
