###############################################################
#
#primitive cell cif file
#
###############################################################

DP910Anegm10_data

_symmetry_space_group_name_H-M 'P 1'
_cell_length_a      8.64136129
_cell_length_b      8.64136129
_cell_length_c      12.29000000
_cell_angle_alpha   89.628883
_cell_angle_beta    90.371117
_cell_angle_gamma   76.418725

loop_
_atom_site_label
_atom_site_fract_x
_atom_site_fract_y
_atom_site_fract_z
C1 -3.333283625496E-01 -4.737072886232E-02 -4.820459686743E-01
C2 -4.204148770555E-01 9.534898043778E-02 -4.360985957831E-01
C3 -1.645940347104E-01 -9.974966611248E-02 -4.686293075789E-01
C4 -4.135885266360E-01 -1.428692976972E-01 4.526040212684E-01
C5 4.135885266360E-01 1.428692976972E-01 -4.526040212684E-01
C6 -3.397449692848E-01 1.979304064266E-01 -3.701748463315E-01
H7 -1.029076911391E-01 -2.800298655733E-02 -4.207572880131E-01
C8 -8.064701711555E-02 -2.357257864339E-01 4.838948330549E-01
C9 4.204148770555E-01 -9.534898043778E-02 4.360985957831E-01
C10 -3.197788602189E-01 -2.826387346169E-01 4.029305953698E-01
C11 3.197788602189E-01 2.826387346169E-01 -4.029305953698E-01
C12 3.333283625496E-01 4.737072886232E-02 4.820459686743E-01
C13 -2.696745386754E-01 1.462860280017E-01 -2.695861872121E-01
C14 -3.365686902482E-01 3.507263144965E-01 -4.069970710580E-01
H15 4.718009740336E-02 -2.725499149820E-01 4.945345532546E-01
C16 -1.591792044741E-01 -3.279814614158E-01 4.180360483707E-01
C17 3.397449692848E-01 -1.979304064266E-01 3.701748463315E-01
H18 -3.782965600475E-01 -3.531964691053E-01 3.518442467976E-01
H19 3.782965600475E-01 3.531964691053E-01 -3.518442467976E-01
C20 1.591792044741E-01 3.279814614158E-01 -4.180360483707E-01
C21 1.645940347103E-01 9.974966611248E-02 4.686293075789E-01
H22 -2.706385287433E-01 2.810842481060E-02 -2.397607216332E-01
C23 -1.996342998073E-01 2.451770712215E-01 -2.071495431674E-01
H24 -3.876720483166E-01 3.908105849283E-01 -4.858976998298E-01
C25 -2.684000676207E-01 4.505301286942E-01 -3.439900095153E-01
H26 -9.086057167758E-02 -4.335453978189E-01 3.786504880390E-01
C27 2.696745386754E-01 -1.462860280017E-01 2.695861872121E-01
C28 3.365686902482E-01 -3.507263144965E-01 4.069970710580E-01
H29 9.086057167758E-02 4.335453978189E-01 -3.786504880390E-01
C30 8.064701711555E-02 2.357257864339E-01 -4.838948330549E-01
H31 1.029076911391E-01 2.800298655733E-02 4.207572880131E-01
H32 -1.449146808583E-01 2.037459532095E-01 -1.296082532601E-01
C33 -1.997281583805E-01 3.978721266940E-01 -2.437862155615E-01
H34 -2.680687050012E-01 -4.314538508726E-01 -3.740137182829E-01
H35 2.706385287433E-01 -2.810842481060E-02 2.397607216332E-01
C36 1.996342998073E-01 -2.451770712215E-01 2.071495431674E-01
H37 3.876720483166E-01 -3.908105849283E-01 4.858976998298E-01
C38 2.684000676207E-01 -4.505301286942E-01 3.439900095153E-01
H39 -4.718009740336E-02 2.725499149820E-01 -4.945345532546E-01
H40 -1.459387996863E-01 4.747063411869E-01 -1.943243557631E-01
H41 1.449146808583E-01 -2.037459532095E-01 1.296082532601E-01
C42 1.997281583805E-01 -3.978721266940E-01 2.437862155615E-01
H43 2.680687050012E-01 4.314538508726E-01 3.740137182829E-01
H44 1.459387996863E-01 -4.747063411869E-01 1.943243557631E-01
C45 -4.737072886233E-02 -3.333283625496E-01 -1.795403132566E-02
C46 9.534898043777E-02 -4.204148770554E-01 -6.390140421691E-02
C47 -9.974966611249E-02 -1.645940347103E-01 -3.137069242110E-02
C48 -1.428692976972E-01 -4.135885266360E-01 4.739597873164E-02
C49 1.428692976972E-01 4.135885266360E-01 -4.739597873164E-02
C50 1.979304064266E-01 -3.397449692848E-01 -1.298251536685E-01
H51 -2.800298655734E-02 -1.029076911391E-01 -7.924271198689E-02
C52 -2.357257864339E-01 -8.064701711554E-02 1.610516694510E-02
C53 -9.534898043779E-02 4.204148770555E-01 6.390140421691E-02
C54 -2.826387346169E-01 -3.197788602189E-01 9.706940463021E-02
C55 2.826387346169E-01 3.197788602189E-01 -9.706940463021E-02
C56 4.737072886231E-02 3.333283625496E-01 1.795403132566E-02
C57 1.462860280017E-01 -2.696745386754E-01 -2.304138127879E-01
C58 3.507263144965E-01 -3.365686902482E-01 -9.300292894196E-02
H59 -2.725499149820E-01 4.718009740337E-02 5.465446745387E-03
C60 -3.279814614158E-01 -1.591792044740E-01 8.196395162932E-02
C61 -1.979304064266E-01 3.397449692848E-01 1.298251536685E-01
H62 -3.531964691053E-01 -3.782965600475E-01 1.481557532024E-01
H63 3.531964691053E-01 3.782965600475E-01 -1.481557532024E-01
C64 3.279814614158E-01 1.591792044741E-01 -8.196395162932E-02
C65 9.974966611247E-02 1.645940347104E-01 3.137069242110E-02
H66 2.810842481059E-02 -2.706385287433E-01 -2.602392783668E-01
C67 2.451770712215E-01 -1.996342998073E-01 -2.928504568326E-01
H68 3.908105849283E-01 -3.876720483166E-01 -1.410230017017E-02
C69 4.505301286942E-01 -2.684000676207E-01 -1.560099904847E-01
H70 -4.335453978189E-01 -9.086057167757E-02 1.213495119610E-01
C71 -1.462860280017E-01 2.696745386754E-01 2.304138127879E-01
C72 -3.507263144965E-01 3.365686902482E-01 9.300292894196E-02
H73 4.335453978189E-01 9.086057167759E-02 -1.213495119610E-01
C74 2.357257864339E-01 8.064701711556E-02 -1.610516694510E-02
H75 2.800298655732E-02 1.029076911391E-01 7.924271198689E-02
H76 2.037459532095E-01 -1.449146808583E-01 -3.703917467399E-01
C77 3.978721266939E-01 -1.997281583805E-01 -2.562137844385E-01
H78 -4.314538508726E-01 -2.680687050012E-01 -1.259862817171E-01
H79 -2.810842481061E-02 2.706385287433E-01 2.602392783668E-01
C80 -2.451770712215E-01 1.996342998073E-01 2.928504568326E-01
H81 -3.908105849283E-01 3.876720483166E-01 1.410230017017E-02
C82 -4.505301286942E-01 2.684000676207E-01 1.560099904847E-01
H83 2.725499149820E-01 -4.718009740335E-02 -5.465446745387E-03
H84 4.747063411869E-01 -1.459387996863E-01 -3.056756442369E-01
H85 -2.037459532096E-01 1.449146808583E-01 3.703917467399E-01
C86 -3.978721266940E-01 1.997281583806E-01 2.562137844385E-01
H87 4.314538508725E-01 2.680687050012E-01 1.259862817171E-01
H88 -4.747063411869E-01 1.459387996863E-01 3.056756442369E-01


#===END
