###############################################################
#
#primitive cell cif file
#
###############################################################

DP910Aposm14_data

_symmetry_space_group_name_H-M 'P 1'
_cell_length_a      8.64136129
_cell_length_b      8.64136129
_cell_length_c      12.29000000
_cell_angle_alpha   89.628883
_cell_angle_beta    90.371117
_cell_angle_gamma   76.418725

loop_
_atom_site_label
_atom_site_fract_x
_atom_site_fract_y
_atom_site_fract_z
C1 -3.345681927792E-01 -4.744098365722E-02 -4.778840334127E-01
C2 -4.234264834986E-01 9.701797559857E-02 -4.352812088507E-01
C3 -1.664934875096E-01 -9.945171542659E-02 -4.606761221153E-01
C4 -4.117802063884E-01 -1.451214286274E-01 4.563156693271E-01
C5 4.117802063884E-01 1.451214286274E-01 -4.563156693271E-01
C6 -3.449138007435E-01 2.001713595451E-01 -3.683947555105E-01
H7 -1.070051648446E-01 -2.580029473591E-02 -4.127856263137E-01
C8 -8.052204532245E-02 -2.369352698304E-01 4.948659996121E-01
C9 4.234264834986E-01 -9.701797559857E-02 4.352812088507E-01
C10 -3.160561739856E-01 -2.874520273397E-01 4.108486681839E-01
C11 3.160561739856E-01 2.874520273397E-01 -4.108486681839E-01
C12 3.345681927792E-01 4.744098365722E-02 4.778840334127E-01
C13 -2.807006250110E-01 1.506970880650E-01 -2.658523811257E-01
C14 -3.366424692703E-01 3.508461894068E-01 -4.065347388440E-01
H15 4.690063057724E-02 -2.730071214388E-01 -4.925667437667E-01
C16 -1.562430910796E-01 -3.320747295951E-01 4.293905056372E-01
C17 3.449138007435E-01 -2.001713595451E-01 3.683947555105E-01
H18 -3.723842722979E-01 -3.602647953934E-01 3.600761617070E-01
H19 3.723842722979E-01 3.602647953934E-01 -3.600761617070E-01
C20 1.562430910796E-01 3.320747295951E-01 -4.293905056372E-01
C21 1.664934875096E-01 9.945171542659E-02 4.606761221153E-01
H22 -2.853808146309E-01 3.404964378262E-02 -2.349712177363E-01
C23 -2.102861429032E-01 2.492267454419E-01 -2.034010499070E-01
H24 -3.839529182471E-01 3.896673216057E-01 -4.865526216984E-01
C25 -2.682620820176E-01 4.502674026762E-01 -3.434097189291E-01
H26 -8.601919625836E-02 -4.392047538447E-01 3.928130416401E-01
C27 2.807006250110E-01 -1.506970880650E-01 2.658523811257E-01
C28 3.366424692703E-01 -3.508461894068E-01 4.065347388440E-01
H29 8.601919625836E-02 4.392047538447E-01 -3.928130416401E-01
C30 8.052204532245E-02 2.369352698304E-01 -4.948659996121E-01
H31 1.070051648446E-01 2.580029473591E-02 4.127856263137E-01
H32 -1.591331552804E-01 2.089043105180E-01 -1.246721797300E-01
C33 -2.045793983260E-01 3.994942751768E-01 -2.416282296829E-01
H34 -2.640915977142E-01 -4.333640862923E-01 -3.746316557153E-01
H35 2.853808146309E-01 -3.404964378262E-02 2.349712177363E-01
C36 2.102861429032E-01 -2.492267454419E-01 2.034010499070E-01
H37 3.839529182471E-01 -3.896673216057E-01 4.865526216984E-01
C38 2.682620820176E-01 -4.502674026762E-01 3.434097189291E-01
H39 -4.690063057724E-02 2.730071214388E-01 4.925667437667E-01
H40 -1.502319506695E-01 4.759409477089E-01 -1.922438870644E-01
H41 1.591331552804E-01 -2.089043105180E-01 1.246721797300E-01
C42 2.045793983260E-01 -3.994942751768E-01 2.416282296829E-01
H43 2.640915977142E-01 4.333640862923E-01 3.746316557153E-01
H44 1.502319506695E-01 -4.759409477089E-01 1.922438870644E-01
C45 -4.435471644503E-02 -3.335704429369E-01 -1.951806681193E-02
C46 9.457774562177E-02 -4.249608341845E-01 -6.774363836649E-02
C47 -9.369368012625E-02 -1.648236220630E-01 -3.459776273456E-02
C48 -1.392413893339E-01 -4.093677733861E-01 4.967158878808E-02
C49 1.392413893339E-01 4.093677733861E-01 -4.967158878808E-02
C50 1.973110448873E-01 -3.477744779549E-01 -1.359899040809E-01
H51 -2.262447194855E-02 -1.062530026653E-01 -8.539738426777E-02
C52 -2.261446963143E-01 -7.706035385449E-02 1.484001757515E-02
C53 -9.457774562177E-02 4.249608341845E-01 6.774363836649E-02
C54 -2.754366223901E-01 -3.116595758554E-01 1.009835469974E-01
C55 2.754366223901E-01 3.116595758554E-01 -1.009835469974E-01
C56 4.435471644503E-02 3.335704429369E-01 1.951806681193E-02
C57 1.450013887671E-01 -2.788904768279E-01 -2.368237789304E-01
C58 3.503193509069E-01 -3.441945826296E-01 -9.994652103356E-02
H59 -2.611831806404E-01 5.062543659946E-02 2.978149800809E-03
C60 -3.180473718430E-01 -1.513613364523E-01 8.402106333587E-02
C61 -1.973110448873E-01 3.477744779549E-01 1.359899040809E-01
H62 -3.456453974194E-01 -3.668933362598E-01 1.546775327755E-01
H63 3.456453974194E-01 3.668933362598E-01 -1.546775327755E-01
C64 3.180473718430E-01 1.513613364523E-01 -8.402106333587E-02
C65 9.369368012625E-02 1.648236220630E-01 3.459776273456E-02
H66 2.653840599204E-02 -2.796731143102E-01 -2.659605756988E-01
C67 2.431508347707E-01 -2.084862309450E-01 -2.996482849416E-01
H68 3.909880996081E-01 -3.945972694448E-01 -2.087967439495E-02
C69 4.493072167700E-01 -2.756574365506E-01 -1.633936501504E-01
H70 -4.209784796964E-01 -7.973688859165E-02 1.244012813850E-01
C71 -1.450013887671E-01 2.788904768279E-01 2.368237789304E-01
C72 -3.503193509069E-01 3.441945826296E-01 9.994652103356E-02
H73 4.209784796964E-01 7.973688859165E-02 -1.244012813850E-01
C74 2.261446963143E-01 7.706035385449E-02 -1.484001757515E-02
H75 2.262447194855E-02 1.062530026653E-01 8.539738426777E-02
H76 2.008715960754E-01 -1.532873015200E-01 -3.769360759186E-01
C77 3.956692370542E-01 -2.074721493807E-01 -2.636039586846E-01
H78 -4.326572104391E-01 -2.742132490743E-01 -1.337922769518E-01
H79 -2.653840599204E-02 2.796731143102E-01 2.659605756988E-01
C80 -2.431508347707E-01 2.084862309450E-01 2.996482849416E-01
H81 -3.909880996081E-01 3.945972694448E-01 2.087967439495E-02
C82 -4.493072167700E-01 2.756574365506E-01 1.633936501504E-01
H83 2.611831806404E-01 -5.062543659946E-02 -2.978149800809E-03
H84 4.714473012466E-01 -1.527175611382E-01 -3.132127984531E-01
H85 -2.008715960754E-01 1.532873015200E-01 3.769360759186E-01
C86 -3.956692370542E-01 2.074721493807E-01 2.636039586846E-01
H87 4.326572104391E-01 2.742132490743E-01 1.337922769518E-01
H88 -4.714473012466E-01 1.527175611382E-01 3.132127984531E-01


#===END
