###############################################################
#
#primitive cell cif file
#
###############################################################

DP910Anegm8_data

_symmetry_space_group_name_H-M 'P 1'
_cell_length_a      8.64136129
_cell_length_b      8.64136129
_cell_length_c      12.29000000
_cell_angle_alpha   89.628883
_cell_angle_beta    90.371117
_cell_angle_gamma   76.418725

loop_
_atom_site_label
_atom_site_fract_x
_atom_site_fract_y
_atom_site_fract_z
C1 -3.334723260126E-01 -4.426323701744E-02 -4.811679857848E-01
C2 -4.233820330215E-01 9.733825454356E-02 -4.355677869627E-01
C3 -1.647174365397E-01 -9.382683983748E-02 -4.666367068535E-01
C4 -4.106816093289E-01 -1.418278289513E-01 4.529126350000E-01
C5 4.106816093289E-01 1.418278289513E-01 -4.529126350000E-01
C6 -3.460376038796E-01 2.030426686007E-01 -3.699623041002E-01
H7 -1.055331272381E-01 -2.113605030638E-02 -4.176860850985E-01
C8 -7.804425192600E-02 -2.282739857686E-01 4.857111526629E-01
C9 4.233820330215E-01 -9.733825454356E-02 4.355677869627E-01
C10 -3.140385134579E-01 -2.802241758216E-01 4.034314496939E-01
C11 3.140385134579E-01 2.802241758216E-01 -4.034314496939E-01
C12 3.334723260126E-01 4.426323701744E-02 4.811679857848E-01
C13 -2.784519843308E-01 1.560351219547E-01 -2.679581528343E-01
C14 -3.446905883255E-01 3.553886233460E-01 -4.086995811224E-01
H15 4.972514058684E-02 -2.633784505325E-01 4.968479253022E-01
C16 -1.535197959888E-01 -3.223233415855E-01 4.192179382829E-01
C17 3.460376038796E-01 -2.030426686007E-01 3.699623041002E-01
H18 -3.702336907857E-01 -3.522725497990E-01 3.519545977457E-01
H19 3.702336907857E-01 3.522725497990E-01 -3.519545977457E-01
C20 1.535197959888E-01 3.223233415855E-01 -4.192179382829E-01
C21 1.647174365397E-01 9.382683983748E-02 4.666367068535E-01
H22 -2.774435138668E-01 3.796720550420E-02 -2.368068206108E-01
C23 -2.127369898912E-01 2.591533266668E-01 -2.060722854542E-01
H24 -3.936881971167E-01 3.918443495356E-01 -4.886384254327E-01
C25 -2.811759653134E-01 4.593795713142E-01 -3.462436284439E-01
H26 -8.267452061297E-02 -4.266968670023E-01 3.800121009873E-01
C27 2.784519843308E-01 -1.560351219547E-01 2.679581528343E-01
C28 3.446905883255E-01 -3.553886233460E-01 4.086995811224E-01
H29 8.267452061297E-02 4.266968670023E-01 -3.800121009873E-01
C30 7.804425192600E-02 2.282739857686E-01 -4.857111526629E-01
H31 1.055331272381E-01 2.113605030638E-02 4.176860850985E-01
H32 -1.591600605221E-01 2.208890923130E-01 -1.275965224089E-01
C33 -2.152765593367E-01 4.115233265747E-01 -2.445105822297E-01
H34 -2.825487861005E-01 -4.230302829200E-01 -3.778208261064E-01
H35 2.774435138668E-01 -3.796720550420E-02 2.368068206108E-01
C36 2.127369898912E-01 -2.591533266668E-01 2.060722854542E-01
H37 3.936881971167E-01 -3.918443495356E-01 4.886384254327E-01
C38 2.811759653134E-01 -4.593795713142E-01 3.462436284439E-01
H39 -4.972514058684E-02 2.633784505325E-01 -4.968479253022E-01
H40 -1.653006073341E-01 4.917623007246E-01 -1.953136065990E-01
H41 1.591600605221E-01 -2.208890923130E-01 1.275965224089E-01
C42 2.152765593367E-01 -4.115233265747E-01 2.445105822297E-01
H43 2.825487861005E-01 4.230302829200E-01 3.778208261064E-01
H44 1.653006073341E-01 -4.917623007246E-01 1.953136065990E-01
C45 -4.753246308481E-02 -3.346663097034E-01 -2.280201918404E-02
C46 9.425746667678E-02 -4.250052846616E-01 -6.803021647850E-02
C47 -9.931855571546E-02 -1.665996730328E-01 -4.055834747276E-02
C48 -1.425349890101E-01 -4.104663704454E-01 4.626855446096E-02
C49 1.425349890101E-01 4.104663704454E-01 -4.626855446096E-02
C50 1.944397358317E-01 -3.466506748188E-01 -1.375574526705E-01
H51 -2.728871637799E-02 -1.077250402719E-01 -9.029784305262E-02
C52 -2.348059803762E-01 -7.953814725094E-02 5.685170625941E-03
C53 -9.425746667678E-02 4.250052846616E-01 6.803021647850E-02
C54 -2.826644739082E-01 -3.136772363831E-01 9.356632850744E-02
C55 2.826644739082E-01 3.136772363831E-01 -9.356632850744E-02
C56 4.753246308481E-02 3.346663097034E-01 2.280201918404E-02
C57 1.396633548775E-01 -2.811391175081E-01 -2.389295506390E-01
C58 3.457769169677E-01 -3.361464635743E-01 -1.021113633119E-01
H59 -2.708118515467E-01 4.780092658987E-02 -7.607181130310E-03
C60 -3.277987598526E-01 -1.540846315432E-01 7.384849598152E-02
C61 -1.944397358317E-01 3.466506748188E-01 1.375574526705E-01
H62 -3.536376430139E-01 -3.690439177720E-01 1.465559688142E-01
H63 3.536376430139E-01 3.690439177720E-01 -1.465559688142E-01
C64 3.277987598526E-01 1.540846315432E-01 -7.384849598152E-02
C65 9.931855571546E-02 1.665996730328E-01 4.055834747276E-02
H66 2.262084427046E-02 -2.876104150743E-01 -2.677961785732E-01
C67 2.332242535458E-01 -2.060353839570E-01 -3.023195204887E-01
H68 3.888110716782E-01 -3.848619905751E-01 -2.296547812929E-02
C69 4.401950481321E-01 -2.627435532548E-01 -1.662275596652E-01
H70 -4.334863665388E-01 -8.308156423704E-02 1.116003407323E-01
C71 -1.396633548775E-01 2.811391175081E-01 2.389295506390E-01
C72 -3.457769169677E-01 3.361464635743E-01 1.021113633119E-01
H73 4.334863665388E-01 8.308156423704E-02 -1.116003407323E-01
C74 2.348059803762E-01 7.953814725094E-02 -5.685170625941E-03
H75 2.728871637799E-02 1.077250402719E-01 9.029784305262E-02
H76 1.888868142805E-01 -1.532603962784E-01 -3.798604185976E-01
C77 3.836401856563E-01 -1.967749883700E-01 -2.664863112314E-01
H78 -4.429910138113E-01 -2.557560606881E-01 -1.369814473429E-01
H79 -2.262084427046E-02 2.876104150743E-01 2.677961785732E-01
C80 -2.332242535458E-01 2.060353839570E-01 3.023195204887E-01
H81 -3.888110716782E-01 3.848619905751E-01 2.296547812929E-02
C82 -4.401950481321E-01 2.627435532548E-01 1.662275596652E-01
H83 2.708118515467E-01 -4.780092658987E-02 7.607181130310E-03
H84 4.556259482310E-01 -1.376489044736E-01 -3.162825179877E-01
H85 -1.888868142805E-01 1.532603962784E-01 3.798604185976E-01
C86 -3.836401856563E-01 1.967749883700E-01 2.664863112314E-01
H87 4.429910138113E-01 2.557560606881E-01 1.369814473429E-01
H88 -4.556259482310E-01 1.376489044736E-01 3.162825179877E-01


#===END
