###############################################################
#
#primitive cell cif file
#
###############################################################

DP910Aposm24_data

_symmetry_space_group_name_H-M 'P 1'
_cell_length_a      8.64136129
_cell_length_b      8.64136129
_cell_length_c      12.29000000
_cell_angle_alpha   89.628883
_cell_angle_beta    90.371117
_cell_angle_gamma   76.418725

loop_
_atom_site_label
_atom_site_fract_x
_atom_site_fract_y
_atom_site_fract_z
C1 -3.338161762538E-01 -4.378924178406E-02 -4.804042388120E-01
C2 -4.243070670277E-01 9.865169626158E-02 -4.361372296134E-01
C3 -1.649097253155E-01 -9.195373254460E-02 -4.658109058164E-01
C4 -4.102300297811E-01 -1.434654460840E-01 4.548709740953E-01
C5 4.102300297811E-01 1.434654460840E-01 -4.548709740953E-01
C6 -3.466376044000E-01 2.011693723115E-01 -3.681088591239E-01
H7 -1.059509200755E-01 -1.707359111173E-02 -4.186234554588E-01
C8 -7.764054979188E-02 -2.278607135862E-01 4.886503797783E-01
C9 4.243070670277E-01 -9.865169626158E-02 4.361372296134E-01
C10 -3.132487033013E-01 -2.842480044846E-01 4.083547863594E-01
C11 3.132487033013E-01 2.842480044846E-01 -4.083547863594E-01
C12 3.338161762538E-01 4.378924178406E-02 4.804042388120E-01
C13 -2.805399677169E-01 1.473166638538E-01 -2.667927377059E-01
C14 -3.401233312784E-01 3.538809928431E-01 -4.030273725507E-01
H15 5.028302100824E-02 -2.614225122722E-01 4.994561717727E-01
C16 -1.528164919022E-01 -3.255365045620E-01 4.248480761710E-01
C17 3.466376044000E-01 -2.011693723115E-01 3.681088591239E-01
H18 -3.690604578811E-01 -3.585713685577E-01 3.583811165643E-01
H19 3.690604578811E-01 3.585713685577E-01 -3.583811165643E-01
C20 1.528164919022E-01 3.255365045620E-01 -4.248480761710E-01
C21 1.649097253155E-01 9.195373254460E-02 4.658109058164E-01
H22 -2.839304541513E-01 2.909339510297E-02 -2.384570072460E-01
C23 -2.096375785526E-01 2.432596723232E-01 -2.024869264325E-01
H24 -3.884672147614E-01 3.959593616366E-01 -4.822962270489E-01
C25 -2.712824661986E-01 4.508819365922E-01 -3.379016039570E-01
H26 -8.166597548836E-02 -4.318433458320E-01 3.878933784183E-01
C27 2.805399677169E-01 -1.473166638538E-01 2.667927377059E-01
C28 3.401233312784E-01 -3.538809928431E-01 4.030273725507E-01
H29 8.166597548836E-02 4.318433458320E-01 -3.878933784183E-01
C30 7.764054979188E-02 2.278607135862E-01 -4.886503797783E-01
H31 1.059509200755E-01 1.707359111173E-02 4.186234554588E-01
H32 -1.566722768520E-01 1.994555247001E-01 -1.249032888469E-01
C33 -2.054623298659E-01 3.954725689092E-01 -2.374252559981E-01
H34 -2.680219150461E-01 -4.311191480556E-01 -3.665951703913E-01
H35 2.839304541513E-01 -2.909339510297E-02 2.384570072460E-01
C36 2.096375785526E-01 -2.432596723232E-01 2.024869264325E-01
H37 3.884672147614E-01 -3.959593616366E-01 4.822962270489E-01
C38 2.712824661986E-01 -4.508819365922E-01 3.379016039570E-01
H39 -5.028302100824E-02 2.614225122722E-01 -4.994561717727E-01
H40 -1.503570013278E-01 4.697665853627E-01 -1.867181985213E-01
H41 1.566722768520E-01 -1.994555247001E-01 1.249032888469E-01
C42 2.054623298659E-01 -3.954725689092E-01 2.374252559981E-01
H43 2.680219150461E-01 4.311191480556E-01 3.665951703913E-01
H44 1.503570013278E-01 -4.697665853627E-01 1.867181985213E-01
C45 -4.378924178407E-02 -3.338161762538E-01 -1.959576118804E-02
C46 9.865169626157E-02 -4.243070670277E-01 -6.386277038665E-02
C47 -9.195373254460E-02 -1.649097253155E-01 -3.418909418363E-02
C48 -1.434654460840E-01 -4.102300297811E-01 4.512902590471E-02
C49 1.434654460840E-01 4.102300297811E-01 -4.512902590471E-02
C50 2.011693723114E-01 -3.466376044000E-01 -1.318911408761E-01
H51 -1.707359111174E-02 -1.059509200755E-01 -8.137654454116E-02
C52 -2.278607135862E-01 -7.764054979187E-02 1.134962022168E-02
C53 -9.865169626159E-02 4.243070670277E-01 6.386277038665E-02
C54 -2.842480044846E-01 -3.132487033013E-01 9.164521364062E-02
C55 2.842480044846E-01 3.132487033013E-01 -9.164521364062E-02
C56 4.378924178405E-02 3.338161762538E-01 1.959576118804E-02
C57 1.473166638538E-01 -2.805399677169E-01 -2.332072622941E-01
C58 3.538809928431E-01 -3.401233312784E-01 -9.697262744928E-02
H59 -2.614225122722E-01 5.028302100825E-02 5.438282272794E-04
C60 -3.255365045621E-01 -1.528164919022E-01 7.515192382905E-02
C61 -2.011693723115E-01 3.466376044000E-01 1.318911408761E-01
H62 -3.585713685577E-01 -3.690604578810E-01 1.416188834357E-01
H63 3.585713685577E-01 3.690604578811E-01 -1.416188834357E-01
C64 3.255365045620E-01 1.528164919022E-01 -7.515192382905E-02
C65 9.195373254459E-02 1.649097253155E-01 3.418909418363E-02
H66 2.909339510296E-02 -2.839304541513E-01 -2.615429927540E-01
C67 2.432596723232E-01 -2.096375785525E-01 -2.975130735675E-01
H68 3.959593616366E-01 -3.884672147614E-01 -1.770377295112E-02
C69 4.508819365921E-01 -2.712824661986E-01 -1.620983960430E-01
H70 -4.318433458320E-01 -8.166597548836E-02 1.121066215817E-01
C71 -1.473166638538E-01 2.805399677169E-01 2.332072622941E-01
C72 -3.538809928431E-01 3.401233312784E-01 9.697262744928E-02
H73 4.318433458320E-01 8.166597548837E-02 -1.121066215817E-01
C74 2.278607135862E-01 7.764054979189E-02 -1.134962022168E-02
H75 1.707359111172E-02 1.059509200755E-01 8.137654454116E-02
H76 1.994555247001E-01 -1.566722768519E-01 -3.750967111531E-01
C77 3.954725689092E-01 -2.054623298659E-01 -2.625747440019E-01
H78 -4.311191480556E-01 -2.680219150460E-01 -1.334048296087E-01
H79 -2.909339510298E-02 2.839304541513E-01 2.615429927540E-01
C80 -2.432596723233E-01 2.096375785526E-01 2.975130735675E-01
H81 -3.959593616366E-01 3.884672147614E-01 1.770377295112E-02
C82 -4.508819365922E-01 2.712824661986E-01 1.620983960430E-01
H83 2.614225122722E-01 -5.028302100823E-02 -5.438282272794E-04
H84 4.697665853627E-01 -1.503570013278E-01 -3.132818014787E-01
H85 -1.994555247001E-01 1.566722768520E-01 3.750967111531E-01
C86 -3.954725689093E-01 2.054623298660E-01 2.625747440019E-01
H87 4.311191480556E-01 2.680219150461E-01 1.334048296087E-01
H88 -4.697665853627E-01 1.503570013278E-01 3.132818014787E-01


#===END
