###############################################################
#
#primitive cell cif file
#
###############################################################

DP910Anegm29_data

_symmetry_space_group_name_H-M 'P 1'
_cell_length_a      8.64136129
_cell_length_b      8.64136129
_cell_length_c      12.29000000
_cell_angle_alpha   89.628883
_cell_angle_beta    90.371117
_cell_angle_gamma   76.418725

loop_
_atom_site_label
_atom_site_fract_x
_atom_site_fract_y
_atom_site_fract_z
C1 -3.341877408495E-01 -4.511702313050E-02 -4.792378259803E-01
C2 -4.234406194520E-01 9.776366331668E-02 -4.345116776614E-01
C3 -1.662236600188E-01 -9.771244010139E-02 -4.615789721529E-01
C4 -4.109377774689E-01 -1.419959176174E-01 4.533867930025E-01
C5 4.109377774689E-01 1.419959176174E-01 -4.533867930025E-01
C6 -3.451692322515E-01 2.017768350617E-01 -3.670380437410E-01
H7 -1.073079353196E-01 -2.655964224243E-02 -4.111020439018E-01
C8 -7.939884892244E-02 -2.327723164566E-01 4.915064537291E-01
C9 4.234406194520E-01 -9.776366331668E-02 4.345116776614E-01
C10 -3.136769270925E-01 -2.795577333752E-01 4.034751916654E-01
C11 3.136769270925E-01 2.795577333752E-01 -4.034751916654E-01
C12 3.341877408495E-01 4.511702313050E-02 4.792378259803E-01
C13 -2.791808696486E-01 1.500936295083E-01 -2.652459343539E-01
C14 -3.380277530903E-01 3.542754714077E-01 -4.027224557844E-01
H15 4.776844607458E-02 -2.698408287781E-01 -4.946665066662E-01
C16 -1.537110705971E-01 -3.236401842338E-01 4.215454354467E-01
C17 3.451692322515E-01 -2.017768350617E-01 3.670380437410E-01
H18 -3.693073204321E-01 -3.495330826782E-01 3.498529060011E-01
H19 3.693073204321E-01 3.495330826782E-01 -3.498529060011E-01
C20 1.537110705971E-01 3.236401842338E-01 -4.215454354467E-01
C21 1.662236600188E-01 9.771244010139E-02 4.615789721529E-01
H22 -2.823818311182E-01 3.234376667297E-02 -2.358463655499E-01
C23 -2.088383913894E-01 2.471013665414E-01 -2.013261189785E-01
H24 -3.860794809260E-01 3.958380981123E-01 -4.821696363497E-01
C25 -2.695267424887E-01 4.523740367341E-01 -3.380735184302E-01
H26 -8.244136720938E-02 -4.272962766442E-01 3.817457551977E-01
C27 2.791808696486E-01 -1.500936295083E-01 2.652459343539E-01
C28 3.380277530903E-01 -3.542754714077E-01 4.027224557844E-01
H29 8.244136720938E-02 4.272962766442E-01 -3.817457551977E-01
C30 7.939884892244E-02 2.327723164566E-01 -4.915064537291E-01
H31 1.073079353196E-01 2.655964224243E-02 4.111020439018E-01
H32 -1.564232463078E-01 2.041717226985E-01 -1.234250783234E-01
C33 -2.046066054263E-01 3.989361098421E-01 -2.370095299655E-01
H34 -2.662335937785E-01 -4.300428523978E-01 -3.676173855893E-01
H35 2.823818311182E-01 -3.234376667297E-02 2.358463655499E-01
C36 2.088383913894E-01 -2.471013665414E-01 2.013261189785E-01
H37 3.860794809260E-01 -3.958380981123E-01 4.821696363497E-01
C38 2.695267424887E-01 -4.523740367341E-01 3.380735184302E-01
H39 -4.776844607458E-02 2.698408287781E-01 4.946665066662E-01
H40 -1.502290667793E-01 4.741182804558E-01 -1.865781508340E-01
H41 1.564232463078E-01 -2.041717226985E-01 1.234250783234E-01
C42 2.046066054263E-01 -3.989361098421E-01 2.370095299655E-01
H43 2.662335937785E-01 4.300428523978E-01 3.676173855893E-01
H44 1.502290667793E-01 -4.741182804558E-01 1.865781508340E-01
C45 -4.667867697184E-02 -3.339508948664E-01 -2.087185937947E-02
C46 9.383205790366E-02 -4.249466982310E-01 -6.697410717720E-02
C47 -9.543295545145E-02 -1.650934495538E-01 -3.550061277217E-02
C48 -1.423669003439E-01 -4.102102023055E-01 4.674271246348E-02
C49 1.423669003439E-01 4.102102023055E-01 -4.674271246348E-02
C50 1.957055693708E-01 -3.475190464469E-01 -1.346331923114E-01
H51 -2.186512444194E-02 -1.059502321905E-01 -8.371380185585E-02
C52 -2.303076496881E-01 -7.818355025450E-02 1.148047169215E-02
C53 -9.383205790366E-02 4.249466982310E-01 6.697410717720E-02
C54 -2.833309163546E-01 -3.140388227485E-01 9.361007047889E-02
C55 2.833309163546E-01 3.140388227485E-01 -9.361007047889E-02
C56 4.667867697184E-02 3.339508948664E-01 2.087185937947E-02
C57 1.456048473239E-01 -2.804102321903E-01 -2.362173321586E-01
C58 3.468900689060E-01 -3.428092988095E-01 -9.613423797389E-02
H59 -2.643494733011E-01 4.975762110212E-02 8.783869012458E-04
C60 -3.264819172042E-01 -1.538933569348E-01 7.617599314536E-02
C61 -1.957055693708E-01 3.475190464469E-01 1.346331923114E-01
H62 -3.563771101347E-01 -3.699702881255E-01 1.444542770696E-01
H63 3.563771101347E-01 3.699702881255E-01 -1.444542770696E-01
C64 3.264819172042E-01 1.538933569348E-01 -7.617599314536E-02
C65 9.543295545145E-02 1.650934495538E-01 3.550061277217E-02
H66 2.824428310169E-02 -2.826720978229E-01 -2.668357235124E-01
C67 2.452762136712E-01 -2.099339824588E-01 -2.975733540131E-01
H68 3.848173231015E-01 -3.924707067658E-01 -1.649668904629E-02
C69 4.472005827122E-01 -2.743927760795E-01 -1.580574496515E-01
H70 -4.328869568969E-01 -8.331471764063E-02 1.133339949426E-01
C71 -1.456048473239E-01 2.804102321903E-01 2.362173321586E-01
C72 -3.468900689060E-01 3.428092988095E-01 9.613423797389E-02
H73 4.328869568969E-01 8.331471764063E-02 -1.133339949426E-01
C74 2.303076496881E-01 7.818355025450E-02 -1.148047169215E-02
H75 2.186512444194E-02 1.059502321905E-01 8.371380185585E-02
H76 2.056041838949E-01 -1.559972104927E-01 -3.756889745120E-01
C77 3.962274023889E-01 -2.074449422803E-01 -2.589852589672E-01
H78 -4.359784443336E-01 -2.720712530100E-01 -1.267780068259E-01
H79 -2.824428310169E-02 2.826720978229E-01 2.668357235124E-01
C80 -2.452762136712E-01 2.099339824588E-01 2.975733540131E-01
H81 -3.848173231015E-01 3.924707067658E-01 1.649668904629E-02
C82 -4.472005827122E-01 2.743927760795E-01 1.580574496515E-01
H83 2.643494733011E-01 -4.975762110212E-02 -8.783869012458E-04
H84 4.732699684998E-01 -1.527204450284E-01 -3.075470622227E-01
H85 -2.056041838949E-01 1.559972104927E-01 3.756889745120E-01
C86 -3.962274023889E-01 2.074449422803E-01 2.589852589672E-01
H87 4.359784443336E-01 2.720712530100E-01 1.267780068259E-01
H88 -4.732699684998E-01 1.527204450284E-01 3.075470622227E-01


#===END
