###############################################################
#
#primitive cell cif file
#
###############################################################

DP910Aposm19_data

_symmetry_space_group_name_H-M 'P 1'
_cell_length_a      8.64136129
_cell_length_b      8.64136129
_cell_length_c      12.29000000
_cell_angle_alpha   89.628883
_cell_angle_beta    90.371117
_cell_angle_gamma   76.418725

loop_
_atom_site_label
_atom_site_fract_x
_atom_site_fract_y
_atom_site_fract_z
C1 -3.343710079519E-01 -4.462003116325E-02 -4.782767906665E-01
C2 -4.262512379638E-01 9.570951371710E-02 -4.320222319925E-01
C3 -1.658322554542E-01 -9.363298718337E-02 -4.615584723459E-01
C4 -4.087125044925E-01 -1.409906464426E-01 4.526407945168E-01
C5 4.087125044925E-01 1.409906464426E-01 -4.526407945168E-01
C6 -3.485080225691E-01 1.985614091635E-01 -3.644462263661E-01
H7 -1.083098825807E-01 -2.093130747026E-02 -4.114284522526E-01
C8 -7.694081185306E-02 -2.271086544726E-01 4.909539743452E-01
C9 4.262512379638E-01 -9.570951371710E-02 4.320222319925E-01
C10 -3.099596301469E-01 -2.788881870290E-01 4.040088983686E-01
C11 3.099596301469E-01 2.788881870290E-01 -4.040088983686E-01
C12 3.343710079519E-01 4.462003116325E-02 4.782767906665E-01
C13 -2.746140364251E-01 1.453785530326E-01 -2.649785545416E-01
C14 -3.463269311928E-01 3.518382381174E-01 -4.007003690847E-01
H15 5.063560449479E-02 -2.613128091655E-01 -4.963228544526E-01
C16 -1.500635117807E-01 -3.211181530249E-01 4.227166680377E-01
C17 3.485080225691E-01 -1.985614091635E-01 3.644462263661E-01
H18 -3.641428636957E-01 -3.506840705507E-01 3.508862911379E-01
H19 3.641428636957E-01 3.506840705507E-01 -3.508862911379E-01
C20 1.500635117807E-01 3.211181530249E-01 -4.227166680377E-01
C21 1.658322554542E-01 9.363298718337E-02 4.615584723459E-01
H22 -2.748542444300E-01 2.703187097040E-02 -2.352004402906E-01
C23 -1.991015242522E-01 2.420042766156E-01 -2.045159657304E-01
H24 -4.000501067586E-01 3.930813800666E-01 -4.788332221017E-01
C25 -2.738072277324E-01 4.497405053768E-01 -3.391728021482E-01
H26 -7.767369162359E-02 -4.253753949601E-01 3.842436001002E-01
C27 2.746140364251E-01 -1.453785530326E-01 2.649785545416E-01
C28 3.463269311928E-01 -3.518382381174E-01 4.007003690847E-01
H29 7.767369162359E-02 4.253753949601E-01 -3.842436001002E-01
C30 7.694081185306E-02 2.271086544726E-01 -4.909539743452E-01
H31 1.083098825807E-01 2.093130747026E-02 4.114284522526E-01
H32 -1.398673148721E-01 1.985749484588E-01 -1.285202905416E-01
C33 -1.991824898799E-01 3.945794747111E-01 -2.409492835685E-01
H34 -2.740213823265E-01 -4.319207462393E-01 -3.689157202148E-01
H35 2.748542444300E-01 -2.703187097040E-02 2.352004402906E-01
C36 1.991015242522E-01 -2.420042766156E-01 2.045159657304E-01
H37 4.000501067586E-01 -3.930813800666E-01 4.788332221017E-01
C38 2.738072277324E-01 -4.497405053768E-01 3.391728021482E-01
H39 -5.063560449479E-02 2.613128091655E-01 4.963228544526E-01
H40 -1.407670403097E-01 4.693802446677E-01 -1.930452096411E-01
H41 1.398673148721E-01 -1.985749484588E-01 1.285202905416E-01
C42 1.991824898799E-01 -3.945794747111E-01 2.409492835685E-01
H43 2.740213823265E-01 4.319207462393E-01 3.689157202148E-01
H44 1.407670403097E-01 -4.693802446677E-01 1.930452096411E-01
C45 -4.462003116326E-02 -3.343710079519E-01 -2.172320933350E-02
C46 9.570951371710E-02 -4.262512379638E-01 -6.797776800754E-02
C47 -9.363298718338E-02 -1.658322554542E-01 -3.844152765408E-02
C48 -1.409906464426E-01 -4.087125044925E-01 4.735920548321E-02
C49 1.409906464426E-01 4.087125044925E-01 -4.735920548321E-02
C50 1.985614091635E-01 -3.485080225691E-01 -1.355537736339E-01
H51 -2.093130747027E-02 -1.083098825807E-01 -8.857154774739E-02
C52 -2.271086544726E-01 -7.694081185305E-02 9.046025654762E-03
C53 -9.570951371711E-02 4.262512379638E-01 6.797776800754E-02
C54 -2.788881870290E-01 -3.099596301469E-01 9.599110163138E-02
C55 2.788881870290E-01 3.099596301469E-01 -9.599110163138E-02
C56 4.462003116324E-02 3.343710079519E-01 2.172320933350E-02
C57 1.453785530326E-01 -2.746140364251E-01 -2.350214454584E-01
C58 3.518382381174E-01 -3.463269311928E-01 -9.929963091534E-02
H59 -2.613128091655E-01 5.063560449480E-02 -3.677145547356E-03
C60 -3.211181530249E-01 -1.500635117807E-01 7.728333196234E-02
C61 -1.985614091635E-01 3.485080225691E-01 1.355537736339E-01
H62 -3.506840705507E-01 -3.641428636957E-01 1.491137088621E-01
H63 3.506840705507E-01 3.641428636957E-01 -1.491137088621E-01
C64 3.211181530249E-01 1.500635117807E-01 -7.728333196234E-02
C65 9.363298718336E-02 1.658322554542E-01 3.844152765408E-02
H66 2.703187097039E-02 -2.748542444300E-01 -2.647995597094E-01
C67 2.420042766156E-01 -1.991015242522E-01 -2.954840342696E-01
H68 3.930813800666E-01 -4.000501067586E-01 -2.116677789834E-02
C69 4.497405053767E-01 -2.738072277324E-01 -1.608271978518E-01
H70 -4.253753949601E-01 -7.767369162358E-02 1.157563998998E-01
C71 -1.453785530326E-01 2.746140364251E-01 2.350214454584E-01
C72 -3.518382381174E-01 3.463269311928E-01 9.929963091534E-02
H73 4.253753949601E-01 7.767369162360E-02 -1.157563998998E-01
C74 2.271086544726E-01 7.694081185307E-02 -9.046025654763E-03
H75 2.093130747025E-02 1.083098825807E-01 8.857154774739E-02
H76 1.985749484588E-01 -1.398673148721E-01 -3.714797094584E-01
C77 3.945794747111E-01 -1.991824898799E-01 -2.590507164315E-01
H78 -4.319207462393E-01 -2.740213823265E-01 -1.310842797852E-01
H79 -2.703187097041E-02 2.748542444301E-01 2.647995597094E-01
C80 -2.420042766157E-01 1.991015242522E-01 2.954840342696E-01
H81 -3.930813800666E-01 4.000501067586E-01 2.116677789834E-02
C82 -4.497405053768E-01 2.738072277324E-01 1.608271978518E-01
H83 2.613128091655E-01 -5.063560449478E-02 3.677145547356E-03
H84 4.693802446677E-01 -1.407670403097E-01 -3.069547903589E-01
H85 -1.985749484588E-01 1.398673148721E-01 3.714797094584E-01
C86 -3.945794747111E-01 1.991824898799E-01 2.590507164315E-01
H87 4.319207462393E-01 2.740213823265E-01 1.310842797852E-01
H88 -4.693802446678E-01 1.407670403097E-01 3.069547903589E-01


#===END
