###############################################################
#
#primitive cell cif file
#
###############################################################

DP910Anegm28_data

_symmetry_space_group_name_H-M 'P 1'
_cell_length_a      8.64136129
_cell_length_b      8.64136129
_cell_length_c      12.29000000
_cell_angle_alpha   89.628883
_cell_angle_beta    90.371117
_cell_angle_gamma   76.418725

loop_
_atom_site_label
_atom_site_fract_x
_atom_site_fract_y
_atom_site_fract_z
C1 -3.335958248562E-01 -4.748294637294E-02 -4.778237769684E-01
C2 -4.235309125495E-01 9.505729221386E-02 -4.330831596312E-01
C3 -1.656239240783E-01 -1.006254475080E-01 -4.601893199268E-01
C4 -4.097272378699E-01 -1.418116060610E-01 4.527604766606E-01
C5 4.114207419046E-01 1.425512119003E-01 -4.538836038784E-01
C6 -3.458974719397E-01 1.982425308686E-01 -3.655394894751E-01
H7 -1.065031999768E-01 -3.111792418595E-02 -4.084334634354E-01
C8 -7.879753200816E-02 -2.337962408571E-01 4.905425994053E-01
C9 4.248564051336E-01 -9.653842900648E-02 4.344544108531E-01
C10 -3.129793952882E-01 -2.782264169981E-01 4.011724143600E-01
C11 3.147363545528E-01 2.846622327318E-01 -4.086927068265E-01
C12 3.345428108598E-01 4.431275372930E-02 4.805421896324E-01
C13 -2.777376422064E-01 1.472414640092E-01 -2.642747971963E-01
C14 -3.423356846520E-01 3.510371528517E-01 -4.020964335154E-01
H15 4.844954246974E-02 -2.707992404276E-01 -4.960504818494E-01
C16 -1.530427246201E-01 -3.228535942746E-01 4.190302254507E-01
C17 3.467908067587E-01 -1.992398735639E-01 3.668653619546E-01
H18 -3.690235435846E-01 -3.468659292730E-01 3.468110111518E-01
H19 3.702540649731E-01 3.590442635398E-01 -3.585876177796E-01
C20 1.545617029118E-01 3.272685071634E-01 -4.263392168507E-01
C21 1.656931854943E-01 9.251994804484E-02 4.658890394540E-01
H22 -2.789404310600E-01 2.920567472963E-02 -2.344159986480E-01
C23 -2.081361571155E-01 2.462798383493E-01 -2.016596927614E-01
H24 -3.921613826961E-01 3.910245304211E-01 -4.813843868720E-01
C25 -2.750515048752E-01 4.510802342626E-01 -3.387188539836E-01
H26 -8.190361119736E-02 -4.255339520716E-01 3.780965226574E-01
C27 2.818534596325E-01 -1.484570128229E-01 2.647538049990E-01
C28 3.385013672478E-01 -3.501283874620E-01 4.044917842951E-01
H29 8.385247365265E-02 4.346492814696E-01 -3.903152375977E-01
C30 7.878486716877E-02 2.292837252876E-01 -4.894833826317E-01
H31 1.067549675332E-01 1.730684249842E-02 4.189547786105E-01
H32 -1.536665376625E-01 2.047565544704E-01 -1.240524968709E-01
C33 -2.074547064253E-01 3.986714170832E-01 -2.381827831881E-01
H34 -2.742253547505E-01 -4.309970401010E-01 -3.687675633153E-01
H35 2.861134978811E-01 -3.138237504503E-02 2.345946433895E-01
C36 2.106362167327E-01 -2.460977418632E-01 2.020930722040E-01
H37 3.863888049958E-01 -3.896308907927E-01 4.842885604314E-01
C38 2.688680136930E-01 -4.484943851837E-01 3.412972147951E-01
H39 -4.907652470697E-02 2.633910616516E-01 4.994944117181E-01
H40 -1.535319937133E-01 4.752684393006E-01 -1.886656824227E-01
H41 1.587539191380E-01 -2.050193521230E-01 1.236836069404E-01
C42 2.045968412814E-01 -3.964920951479E-01 2.398414878102E-01
H43 2.640794920380E-01 4.350242566303E-01 3.720718154482E-01
H44 1.494175180944E-01 -4.721198096550E-01 1.903654061887E-01
C45 -4.748294637295E-02 -3.335958248562E-01 -2.217622303160E-02
C46 9.505729221385E-02 -4.235309125495E-01 -6.691684036881E-02
C47 -1.006254475080E-01 -1.656239240783E-01 -3.981068007324E-02
C48 -1.418116060610E-01 -4.097272378699E-01 4.723952333939E-02
C49 1.425512119003E-01 4.114207419046E-01 -4.611639612157E-02
C50 1.982425308685E-01 -3.458974719397E-01 -1.344605105249E-01
H51 -3.111792418596E-02 -1.065031999768E-01 -9.156653656457E-02
C52 -2.337962408571E-01 -7.879753200815E-02 9.457400594694E-03
C53 -9.653842900649E-02 4.248564051336E-01 6.554558914694E-02
C54 -2.782264169981E-01 -3.129793952882E-01 9.882758564005E-02
C55 2.846622327317E-01 3.147363545528E-01 -9.130729317346E-02
C56 4.431275372930E-02 3.345428108598E-01 1.945781036761E-02
C57 1.472414640092E-01 -2.777376422064E-01 -2.357252028037E-01
C58 3.510371528517E-01 -3.423356846520E-01 -9.790356648462E-02
H59 -2.707992404276E-01 4.844954246975E-02 -3.949518150618E-03
C60 -3.228535942746E-01 -1.530427246201E-01 8.096977454932E-02
C61 -1.992398735639E-01 3.467908067587E-01 1.331346380454E-01
H62 -3.468659292730E-01 -3.690235435846E-01 1.531889888482E-01
H63 3.590442635398E-01 3.702540649731E-01 -1.414123822204E-01
C64 3.272685071634E-01 1.545617029118E-01 -7.366078314931E-02
C65 9.251994804483E-02 1.656931854943E-01 3.411096054600E-02
H66 2.920567472962E-02 -2.789404310600E-01 -2.655840013520E-01
C67 2.462798383493E-01 -2.081361571155E-01 -2.983403072386E-01
H68 3.910245304211E-01 -3.921613826961E-01 -1.861561312803E-02
C69 4.510802342625E-01 -2.750515048752E-01 -1.612811460164E-01
H70 -4.255339520716E-01 -8.190361119735E-02 1.219034773426E-01
C71 -1.484570128229E-01 2.818534596325E-01 2.352461950010E-01
C72 -3.501283874620E-01 3.385013672479E-01 9.550821570490E-02
H73 4.346492814696E-01 8.385247365266E-02 -1.096847624023E-01
C74 2.292837252876E-01 7.878486716878E-02 -1.051661736834E-02
H75 1.730684249841E-02 1.067549675333E-01 8.104522138951E-02
H76 2.047565544704E-01 -1.536665376624E-01 -3.759475031291E-01
C77 3.986714170831E-01 -2.074547064253E-01 -2.618172168119E-01
H78 -4.309970401010E-01 -2.742253547505E-01 -1.312324366847E-01
H79 -3.138237504504E-02 2.861134978811E-01 2.654053566105E-01
C80 -2.460977418632E-01 2.106362167327E-01 2.979069277960E-01
H81 -3.896308907927E-01 3.863888049958E-01 1.571143956855E-02
C82 -4.484943851837E-01 2.688680136930E-01 1.587027852049E-01
H83 2.633910616516E-01 -4.907652470696E-02 5.055882819156E-04
H84 4.752684393006E-01 -1.535319937133E-01 -3.113343175773E-01
H85 -2.050193521230E-01 1.587539191381E-01 3.763163930596E-01
C86 -3.964920951479E-01 2.045968412815E-01 2.601585121898E-01
H87 4.350242566303E-01 2.640794920380E-01 1.279281845518E-01
H88 -4.721198096550E-01 1.494175180945E-01 3.096345938113E-01


#===END
