###############################################################
#
#primitive cell cif file
#
###############################################################

DP910Anegm20_data

_symmetry_space_group_name_H-M 'P 1'
_cell_length_a      8.64136129
_cell_length_b      8.64136129
_cell_length_c      12.29000000
_cell_angle_alpha   89.628883
_cell_angle_beta    90.371117
_cell_angle_gamma   76.418725

loop_
_atom_site_label
_atom_site_fract_x
_atom_site_fract_y
_atom_site_fract_z
C1 -3.341282277286E-01 -4.473961500041E-02 -4.793428049194E-01
C2 -4.253372158163E-01 9.559998909822E-02 -4.330586314972E-01
C3 -1.658612161729E-01 -9.469010183273E-02 -4.626456487776E-01
C4 -4.095080966594E-01 -1.407614547897E-01 4.522522024702E-01
C5 4.095080966594E-01 1.407614547897E-01 -4.522522024702E-01
C6 -3.475934702952E-01 1.989690300350E-01 -3.658485176304E-01
H7 -1.078101836300E-01 -2.283313522433E-02 -4.121026096705E-01
C8 -7.821062201239E-02 -2.286542804050E-01 4.897368850044E-01
C9 4.253372158163E-01 -9.559998909822E-02 4.330586314972E-01
C10 -3.121195028601E-01 -2.787867493925E-01 4.029902252980E-01
C11 3.121195028601E-01 2.787867493925E-01 -4.029902252980E-01
C12 3.341282277286E-01 4.473961500041E-02 4.793428049194E-01
C13 -2.860152509528E-01 1.510996067852E-01 -2.623724707852E-01
C14 -3.348036116807E-01 3.472516681532E-01 -4.062303506338E-01
H15 4.911099813489E-02 -2.641419067523E-01 -4.972148954224E-01
C16 -1.520995274294E-01 -3.215803582600E-01 4.210275831043E-01
C17 3.475934702952E-01 -1.989690300350E-01 3.658485176304E-01
H18 -3.675105537858E-01 -3.499132281270E-01 3.501146237029E-01
H19 3.675105537858E-01 3.499132281270E-01 -3.501146237029E-01
C20 1.520995274294E-01 3.215803582600E-01 -4.210275831043E-01
C21 1.658612161729E-01 9.469010183273E-02 4.626456487776E-01
H22 -2.942793508906E-01 3.606702518722E-02 -2.301702904249E-01
C23 -2.122756881333E-01 2.486524500527E-01 -2.014247498104E-01
H24 -3.808430186313E-01 3.847989273934E-01 -4.867904443964E-01
C25 -2.623053051329E-01 4.453852472126E-01 -3.448797293835E-01
H26 -8.046870405324E-02 -4.258305637992E-01 3.821518942824E-01
C27 2.860152509528E-01 -1.510996067852E-01 2.623724707852E-01
C28 3.348036116807E-01 -3.472516681532E-01 4.062303506338E-01
H29 8.046870405324E-02 4.258305637992E-01 -3.821518942824E-01
C30 7.821062201239E-02 2.286542804050E-01 -4.897368850044E-01
H31 1.078101836300E-01 2.283313522433E-02 4.121026096705E-01
H32 -1.627697654364E-01 2.097208344927E-01 -1.219435812139E-01
C33 -2.002602775535E-01 3.959869036565E-01 -2.424221454380E-01
H34 -2.534118609866E-01 -4.403956781802E-01 -3.780148171933E-01
H35 2.942793508906E-01 -3.606702518722E-02 2.301702904249E-01
C36 2.122756881333E-01 -2.486524500527E-01 2.014247498104E-01
H37 3.808430186313E-01 -3.847989273934E-01 4.867904443964E-01
C38 2.623053051329E-01 -4.453852472126E-01 3.448797293835E-01
H39 -4.911099813489E-02 2.641419067523E-01 4.972148954224E-01
H40 -1.423301919535E-01 4.712668502136E-01 -1.945469878369E-01
H41 1.627697654364E-01 -2.097208344927E-01 1.219435812139E-01
C42 2.002602775535E-01 -3.959869036565E-01 2.424221454380E-01
H43 2.534118609866E-01 4.403956781802E-01 3.780148171933E-01
H44 1.423301919535E-01 -4.712668502136E-01 1.945469878369E-01
C45 -4.705608510184E-02 -3.340104079874E-01 -2.097683831865E-02
C46 9.599573212212E-02 -4.230501018667E-01 -6.552106101296E-02
C47 -9.845529372011E-02 -1.654558933998E-01 -3.656728939682E-02
C48 -1.436013631716E-01 -4.116398831151E-01 4.560812193120E-02
C49 1.436013631716E-01 4.116398831151E-01 -4.560812193120E-02
C50 1.985133743974E-01 -3.450948084032E-01 -1.334436662007E-01
H51 -2.559163146003E-02 -1.054479838800E-01 -8.471436762454E-02
C52 -2.344256857397E-01 -7.937177716454E-02 9.710902967446E-03
C53 -9.599573212212E-02 4.230501018667E-01 6.552106101296E-02
C54 -2.841019003373E-01 -3.155962469809E-01 9.312510411149E-02
C55 2.841019003373E-01 3.155962469809E-01 -9.312510411149E-02
C56 4.705608510184E-02 3.340104079874E-01 2.097683831865E-02
C57 1.445988700469E-01 -2.735758508861E-01 -2.333438685899E-01
C58 3.539138721605E-01 -3.460334402191E-01 -9.964213282337E-02
H59 -2.700483953269E-01 4.841506904182E-02 -1.670001854933E-03
C60 -3.285417431780E-01 -1.555049001026E-01 7.565814080288E-02
C61 -1.985133743974E-01 3.450948084032E-01 1.334436662007E-01
H62 -3.559969646858E-01 -3.717670547719E-01 1.447159947714E-01
H63 3.559969646858E-01 3.717670547719E-01 -1.447159947714E-01
C64 3.285417431780E-01 1.555049001026E-01 -7.565814080288E-02
C65 9.845529372011E-02 1.654558933998E-01 3.656728939682E-02
H66 2.452102458735E-02 -2.707745780504E-01 -2.611596483873E-01
C67 2.437251301599E-01 -2.064966857149E-01 -2.976719848449E-01
H68 3.958564938204E-01 -3.977071690606E-01 -2.111749709301E-02
C69 4.541893722336E-01 -2.816142134353E-01 -1.648636606048E-01
H70 -4.343526697421E-01 -8.528738079668E-02 1.137401340273E-01
C71 -1.445988700469E-01 2.735758508861E-01 2.333438685899E-01
C72 -3.539138721605E-01 3.460334402191E-01 9.964213282337E-02
H73 4.343526697421E-01 8.528738079668E-02 -1.137401340273E-01
C74 2.344256857397E-01 7.937177716454E-02 -9.710902967446E-03
H75 2.559163146003E-02 1.054479838800E-01 8.471436762454E-02
H76 2.000550721007E-01 -1.496506913641E-01 -3.742074774026E-01
C77 3.991766085746E-01 -2.117912701532E-01 -2.643978744396E-01
H78 -4.256256185511E-01 -2.848929858019E-01 -1.371754384298E-01
H79 -2.452102458735E-02 2.707745780504E-01 2.611596483873E-01
C80 -2.437251301599E-01 2.064966857149E-01 2.976719848449E-01
H81 -3.958564938204E-01 3.977071690606E-01 2.111749709301E-02
C82 -4.541893722336E-01 2.816142134353E-01 1.648636606048E-01
H83 2.700483953269E-01 -4.841506904182E-02 1.670001854933E-03
H84 4.761213987420E-01 -1.606193198542E-01 -3.155158992255E-01
H85 -2.000550721007E-01 1.496506913641E-01 3.742074774026E-01
C86 -3.991766085746E-01 2.117912701532E-01 2.643978744396E-01
H87 4.256256185511E-01 2.848929858019E-01 1.371754384298E-01
H88 -4.761213987420E-01 1.606193198542E-01 3.155158992255E-01


#===END
