###############################################################
#
#primitive cell cif file
#
###############################################################

DP910Aposm5_data

_symmetry_space_group_name_H-M 'P 1'
_cell_length_a      8.64136129
_cell_length_b      8.64136129
_cell_length_c      12.29000000
_cell_angle_alpha   89.628883
_cell_angle_beta    90.371117
_cell_angle_gamma   76.418725

loop_
_atom_site_label
_atom_site_fract_x
_atom_site_fract_y
_atom_site_fract_z
C1 -3.405576389339E-01 -5.261310553841E-02 -4.798387000537E-01
C2 -4.306611565731E-01 8.901903617707E-02 -4.342699883813E-01
C3 -1.722549092697E-01 -1.037195507250E-01 -4.635823916123E-01
C4 -4.173219612538E-01 -1.496445956166E-01 4.534668172603E-01
C5 4.038260185207E-01 1.347182223447E-01 -4.531772632787E-01
C6 -3.530144014464E-01 1.922988543140E-01 -3.667791473296E-01
H7 -1.126797350828E-01 -3.057228482143E-02 -4.153739817381E-01
C8 -8.599908211563E-02 -2.405827088308E-01 4.913390647661E-01
C9 4.177261611100E-01 -1.025766850433E-01 4.332675821029E-01
C10 -3.213166815409E-01 -2.910651772949E-01 4.071198106538E-01
C11 3.063990683001E-01 2.718234724350E-01 -4.027453105327E-01
C12 3.275809967821E-01 3.918259456384E-02 4.785272665471E-01
C13 -2.832438392486E-01 1.409998382824E-01 -2.659320210652E-01
C14 -3.506469903256E-01 3.453796054536E-01 -4.032177890507E-01
H15 4.144139343316E-02 -2.763891687438E-01 -4.960269506292E-01
C16 -1.614920104823E-01 -3.355381307717E-01 4.256381454390E-01
C17 3.396738772520E-01 -2.051835501185E-01 3.656257041001E-01
H18 -3.775893300570E-01 -3.638443931780E-01 3.563089071474E-01
H19 3.616882785007E-01 3.420657996348E-01 -3.490897217841E-01
C20 1.461124170496E-01 3.145839706663E-01 -4.197312968624E-01
C21 1.590622003030E-01 8.942584482780E-02 4.624959677684E-01
H22 -2.832229086280E-01 2.264751886394E-02 -2.362102425589E-01
C23 -2.131973060208E-01 2.401381931295E-01 -2.036859734722E-01
H24 -4.018771605722E-01 3.855794867180E-01 -4.821249356876E-01
C25 -2.827351451689E-01 4.453508632218E-01 -3.402934441033E-01
H26 -9.124637536424E-02 -4.425654493643E-01 3.889768328078E-01
C27 2.763472625903E-01 -1.546986385498E-01 2.630965811301E-01
C28 3.301900615743E-01 -3.557859348601E-01 4.033704287598E-01
H29 7.450970948577E-02 4.176177841768E-01 -3.794349274472E-01
C30 7.158331706131E-02 2.224972573139E-01 -4.886869172709E-01
H31 1.005784324272E-01 1.785248186294E-02 4.120142603078E-01
H32 -1.574028231698E-01 1.987230544793E-01 -1.263930666661E-01
C33 -2.135171921877E-01 3.927225947362E-01 -2.402117880966E-01
H34 -2.827188113283E-01 -4.365836101467E-01 -3.702252905655E-01
H35 2.818310203131E-01 -3.794053091072E-02 2.328003994786E-01
C36 2.055750678274E-01 -2.522393870830E-01 2.000667914933E-01
H37 3.766730271196E-01 -3.950759344958E-01 4.835480116158E-01
C38 2.611843733993E-01 -4.542237562245E-01 3.397226246754E-01
H39 -5.608467374355E-02 2.578011333355E-01 4.995179429383E-01
H40 -1.591916686373E-01 4.694302366757E-01 -1.910492023049E-01
H41 1.550176336307E-01 -2.110528521142E-01 1.213430371453E-01
C42 1.985343555190E-01 -4.024409174949E-01 2.378124829017E-01
H43 2.555860354603E-01 4.294376865846E-01 3.706140881980E-01
H44 1.437578431704E-01 -4.779580122799E-01 1.879818863064E-01
C45 -3.918259456385E-02 -3.275809967821E-01 -2.147273345289E-02
C46 1.025766850433E-01 -4.177261611100E-01 -6.673241789708E-02
C47 -8.942584482781E-02 -1.590622003030E-01 -3.750403223158E-02
C48 -1.347182223447E-01 -4.038260185207E-01 4.682273672129E-02
C49 1.496445956166E-01 4.173219612538E-01 -4.653318273968E-02
C50 2.051835501185E-01 -3.396738772520E-01 -1.343742958999E-01
H51 -1.785248186295E-02 -1.005784324272E-01 -8.798573969223E-02
C52 -2.224972573140E-01 -7.158331706130E-02 1.131308272914E-02
C53 -8.901903617708E-02 4.306611565731E-01 6.573001161868E-02
C54 -2.718234724350E-01 -3.063990683001E-01 9.725468946730E-02
C55 2.910651772949E-01 3.213166815409E-01 -9.288018934621E-02
C56 5.261310553840E-02 3.405576389339E-01 2.016129994632E-02
C57 1.546986385498E-01 -2.763472625903E-01 -2.369034188699E-01
C58 3.557859348601E-01 -3.301900615743E-01 -9.662957124023E-02
H59 -2.578011333355E-01 5.608467374356E-02 -4.820570617494E-04
C60 -3.145839706663E-01 -1.461124170496E-01 8.026870313762E-02
C61 -1.922988543140E-01 3.530144014464E-01 1.332208526704E-01
H62 -3.420657996348E-01 -3.616882785007E-01 1.509102782159E-01
H63 3.638443931780E-01 3.775893300570E-01 -1.436910928526E-01
C64 3.355381307717E-01 1.614920104823E-01 -7.436185456101E-02
C65 1.037195507250E-01 1.722549092697E-01 3.641760838765E-02
H66 3.794053091071E-02 -2.818310203131E-01 -2.671996005214E-01
C67 2.522393870830E-01 -2.055750678274E-01 -2.999332085067E-01
H68 3.950759344958E-01 -3.766730271196E-01 -1.645198838419E-02
C69 4.542237562245E-01 -2.611843733993E-01 -1.602773753246E-01
H70 -4.176177841768E-01 -7.450970948576E-02 1.205650725528E-01
C71 -1.409998382824E-01 2.832438392487E-01 2.340679789348E-01
C72 -3.453796054536E-01 3.506469903256E-01 9.678221094929E-02
H73 4.425654493643E-01 9.124637536425E-02 -1.110231671922E-01
C74 2.405827088308E-01 8.599908211564E-02 -8.660935233886E-03
H75 3.057228482142E-02 1.126797350829E-01 8.462601826185E-02
H76 2.110528521142E-01 -1.550176336307E-01 -3.786569628547E-01
C77 4.024409174949E-01 -1.985343555190E-01 -2.621875170983E-01
H78 -4.294376865846E-01 -2.555860354603E-01 -1.293859118020E-01
H79 -2.264751886395E-02 2.832229086280E-01 2.637897574411E-01
C80 -2.401381931295E-01 2.131973060208E-01 2.963140265278E-01
H81 -3.855794867180E-01 4.018771605722E-01 1.787506431240E-02
C82 -4.453508632218E-01 2.827351451689E-01 1.597065558967E-01
H83 2.763891687438E-01 -4.144139343315E-02 3.973049370784E-03
H84 4.779580122798E-01 -1.437578431704E-01 -3.120181136936E-01
H85 -1.987230544793E-01 1.574028231698E-01 3.736069333339E-01
C86 -3.927225947362E-01 2.135171921877E-01 2.597882119034E-01
H87 4.365836101467E-01 2.827188113283E-01 1.297747094345E-01
H88 -4.694302366757E-01 1.591916686373E-01 3.089507976951E-01


#===END
