###############################################################
#
#primitive cell cif file
#
###############################################################

DP910Anegm24_data

_symmetry_space_group_name_H-M 'P 1'
_cell_length_a      8.64136129
_cell_length_b      8.64136129
_cell_length_c      12.29000000
_cell_angle_alpha   89.628883
_cell_angle_beta    90.371117
_cell_angle_gamma   76.418725

loop_
_atom_site_label
_atom_site_fract_x
_atom_site_fract_y
_atom_site_fract_z
C1 -3.343224594622E-01 -4.800645831819E-02 -4.779617277888E-01
C2 -4.240802506554E-01 9.294402495876E-02 -4.314003408709E-01
C3 -1.664073842571E-01 -1.011916630082E-01 -4.602674535644E-01
C4 -4.109179499933E-01 -1.408973718774E-01 4.517731064437E-01
C5 4.109179499933E-01 1.408973718774E-01 -4.517731064437E-01
C6 -3.460506742984E-01 1.963130321210E-01 -3.642959923058E-01
H7 -1.073072474346E-01 -3.135117557264E-02 -4.087647865871E-01
C8 -7.994184938506E-02 -2.352192525585E-01 4.913756022587E-01
C9 4.240802506554E-01 -9.294402495876E-02 4.314003408709E-01
C10 -3.144670465397E-01 -2.786406452453E-01 4.015103348271E-01
C11 3.144670465397E-01 2.786406452453E-01 -4.015103348271E-01
C12 3.343224594622E-01 4.800645831819E-02 4.779617277888E-01
C13 -2.790511341221E-01 1.483818129783E-01 -2.622358644894E-01
C14 -3.407137206215E-01 3.472845474706E-01 -4.035608452598E-01
H15 4.724304616846E-02 -2.727677898070E-01 -4.950010653402E-01
C16 -1.547879356298E-01 -3.245855968760E-01 4.205213661304E-01
C17 3.460506742984E-01 -1.963130321210E-01 3.642959923058E-01
H18 -3.702171506766E-01 -3.473388242552E-01 3.470175123672E-01
H19 3.702171506766E-01 3.473388242552E-01 -3.470175123672E-01
C20 1.547879356298E-01 3.245855968760E-01 -4.205213661304E-01
C21 1.664073842571E-01 1.011916630082E-01 4.602674535644E-01
H22 -2.811234747898E-01 3.149465467170E-02 -2.305536347915E-01
C23 -2.091347952956E-01 2.491179078893E-01 -2.012658385330E-01
H24 -3.900829729305E-01 3.846960595772E-01 -4.833767202545E-01
C25 -2.726370523696E-01 4.486926828541E-01 -3.421144648217E-01
H26 -8.409010936165E-02 -4.283398877092E-01 3.805183818368E-01
C27 2.790511341221E-01 -1.483818129783E-01 2.622358644894E-01
C28 3.407137206215E-01 -3.472845474706E-01 4.035608452598E-01
H29 8.409010936165E-02 4.283398877092E-01 -3.805183818368E-01
C30 7.994184938506E-02 2.352192525585E-01 -4.913756022587E-01
H31 1.073072474346E-01 3.135117557264E-02 4.087647865871E-01
H32 -1.557481799485E-01 2.103203818933E-01 -1.228328149645E-01
C33 -2.065892178408E-01 3.996909433218E-01 -2.405990150002E-01
H34 -2.702829317425E-01 -4.349021486758E-01 -3.742442083722E-01
H35 2.811234747898E-01 -3.149465467170E-02 2.305536347915E-01
C36 2.091347952956E-01 -2.491179078893E-01 2.012658385330E-01
H37 3.900829729305E-01 -3.846960595772E-01 4.833767202545E-01
C38 2.726370523696E-01 -4.486926828541E-01 3.421144648217E-01
H39 -4.724304616846E-02 2.727677898070E-01 4.950010653402E-01
H40 -1.525925104799E-01 4.776216635929E-01 -1.923128900900E-01
H41 1.557481799485E-01 -2.103203818933E-01 1.228328149645E-01
C42 2.065892178408E-01 -3.996909433218E-01 2.405990150002E-01
H43 2.702829317425E-01 4.349021486758E-01 3.742442083722E-01
H44 1.525925104799E-01 -4.776216635929E-01 1.923128900900E-01
C45 -4.800645831820E-02 -3.343224594622E-01 -2.203827221117E-02
C46 9.294402495875E-02 -4.240802506554E-01 -6.859965912910E-02
C47 -1.011916630083E-01 -1.664073842571E-01 -3.973254643561E-02
C48 -1.408973718774E-01 -4.109179499933E-01 4.822689355626E-02
C49 1.408973718773E-01 4.109179499933E-01 -4.822689355626E-02
C50 1.963130321210E-01 -3.460506742984E-01 -1.357040076942E-01
H51 -3.135117557265E-02 -1.073072474346E-01 -9.123521341293E-02
C52 -2.352192525585E-01 -7.994184938505E-02 8.624397741347E-03
C53 -9.294402495877E-02 4.240802506554E-01 6.859965912910E-02
C54 -2.786406452453E-01 -3.144670465397E-01 9.848966517288E-02
C55 2.786406452453E-01 3.144670465397E-01 -9.848966517288E-02
C56 4.800645831818E-02 3.343224594622E-01 2.203827221117E-02
C57 1.483818129783E-01 -2.790511341221E-01 -2.377641355106E-01
C58 3.472845474706E-01 -3.407137206214E-01 -9.643915474024E-02
H59 -2.727677898071E-01 4.724304616847E-02 -4.998934659813E-03
C60 -3.245855968760E-01 -1.547879356298E-01 7.947863386958E-02
C61 -1.963130321210E-01 3.460506742984E-01 1.357040076942E-01
H62 -3.473388242552E-01 -3.702171506766E-01 1.529824876328E-01
H63 3.473388242552E-01 3.702171506767E-01 -1.529824876328E-01
C64 3.245855968760E-01 1.547879356298E-01 -7.947863386958E-02
C65 1.011916630082E-01 1.664073842572E-01 3.973254643561E-02
H66 3.149465467169E-02 -2.811234747898E-01 -2.694463652085E-01
C67 2.491179078893E-01 -2.091347952956E-01 -2.987341614670E-01
H68 3.846960595772E-01 -3.900829729305E-01 -1.662327974547E-02
C69 4.486926828541E-01 -2.726370523696E-01 -1.578855351783E-01
H70 -4.283398877092E-01 -8.409010936164E-02 1.194816181632E-01
C71 -1.483818129783E-01 2.790511341221E-01 2.377641355106E-01
C72 -3.472845474707E-01 3.407137206215E-01 9.643915474024E-02
H73 4.283398877092E-01 8.409010936166E-02 -1.194816181632E-01
C74 2.352192525585E-01 7.994184938507E-02 -8.624397741347E-03
H75 3.135117557263E-02 1.073072474346E-01 9.123521341293E-02
H76 2.103203818933E-01 -1.557481799485E-01 -3.771671850355E-01
C77 3.996909433218E-01 -2.065892178408E-01 -2.594009849998E-01
H78 -4.349021486758E-01 -2.702829317425E-01 -1.257557916278E-01
H79 -3.149465467171E-02 2.811234747898E-01 2.694463652085E-01
C80 -2.491179078893E-01 2.091347952957E-01 2.987341614670E-01
H81 -3.846960595772E-01 3.900829729305E-01 1.662327974547E-02
C82 -4.486926828541E-01 2.726370523696E-01 1.578855351783E-01
H83 2.727677898070E-01 -4.724304616845E-02 4.998934659813E-03
H84 4.776216635929E-01 -1.525925104799E-01 -3.076871099100E-01
H85 -2.103203818933E-01 1.557481799486E-01 3.771671850355E-01
C86 -3.996909433218E-01 2.065892178408E-01 2.594009849998E-01
H87 4.349021486758E-01 2.702829317425E-01 1.257557916278E-01
H88 -4.776216635929E-01 1.525925104799E-01 3.076871099100E-01


#===END
