###############################################################
#
#primitive cell cif file
#
###############################################################

DP910Anegm30_data

_symmetry_space_group_name_H-M 'P 1'
_cell_length_a      8.64136129
_cell_length_b      8.64136129
_cell_length_c      12.29000000
_cell_angle_alpha   89.628883
_cell_angle_beta    90.371117
_cell_angle_gamma   76.418725

loop_
_atom_site_label
_atom_site_fract_x
_atom_site_fract_y
_atom_site_fract_z
C1 -3.336171494794E-01 -4.579660308109E-02 -4.795232513791E-01
C2 -4.246507281087E-01 9.626518072578E-02 -4.354010953552E-01
C3 -1.656112727077E-01 -9.777455166799E-02 -4.616423645417E-01
C4 -4.098912561131E-01 -1.420327319258E-01 4.533863739359E-01
C5 4.098912561131E-01 1.420327319258E-01 -4.533863739359E-01
C6 -3.473130239821E-01 1.991969859354E-01 -3.685822157291E-01
H7 -1.067149178436E-01 -2.642356069053E-02 -4.113454594498E-01
C8 -7.889321102849E-02 -2.332228969117E-01 4.918474231723E-01
C9 4.246507281087E-01 -9.626518072578E-02 4.354010953552E-01
C10 -3.130249758536E-01 -2.798284143919E-01 4.033413357643E-01
C11 3.130249758536E-01 2.798284143919E-01 -4.033413357643E-01
C12 3.336171494794E-01 4.579660308109E-02 4.795232513791E-01
C13 -2.813965137149E-01 1.460392206563E-01 -2.673547233388E-01
C14 -3.412679441566E-01 3.511500556787E-01 -4.050530970632E-01
H15 4.823452107025E-02 -2.704638948209E-01 -4.941912108519E-01
C16 -1.531462595788E-01 -3.241701790804E-01 4.218007140351E-01
C17 3.473130239821E-01 -1.991969859354E-01 3.685822157291E-01
H18 -3.686188804313E-01 -3.497645782056E-01 3.496919257329E-01
H19 3.686188804313E-01 3.497645782056E-01 -3.496919257329E-01
C20 1.531462595788E-01 3.241701790804E-01 -4.218007140351E-01
C21 1.656112727077E-01 9.777455166799E-02 4.616423645417E-01
H22 -2.851927275545E-01 2.810840528127E-02 -2.387059654381E-01
C23 -2.109730371254E-01 2.428270964082E-01 -2.036620217986E-01
H24 -3.898464668077E-01 3.917723400953E-01 -4.844991803150E-01
C25 -2.728010949562E-01 4.489764823025E-01 -3.405829309418E-01
H26 -8.189792091234E-02 -4.280255002053E-01 3.821855213842E-01
C27 2.813965137149E-01 -1.460392206563E-01 2.673547233388E-01
C28 3.412679441566E-01 -3.511500556787E-01 4.050530970632E-01
H29 8.189792091234E-02 4.280255002053E-01 -3.821855213842E-01
C30 7.889321102849E-02 2.332228969117E-01 -4.918474231723E-01
H31 1.067149178436E-01 2.642356069053E-02 4.113454594498E-01
H32 -1.581812885416E-01 2.006211939636E-01 -1.257131341004E-01
C33 -2.074103152240E-01 3.946823459467E-01 -2.397705972718E-01
H34 -2.694726516145E-01 -4.333066007942E-01 -3.697534510957E-01
H35 2.851927275545E-01 -2.810840528127E-02 2.387059654381E-01
C36 2.109730371254E-01 -2.428270964082E-01 2.036620217986E-01
H37 3.898464668077E-01 -3.917723400953E-01 4.844991803150E-01
C38 2.728010949562E-01 -4.489764823025E-01 3.405829309418E-01
H39 -4.823452107025E-02 2.704638948209E-01 4.941912108519E-01
H40 -1.529428168284E-01 4.699013119932E-01 -1.894106295402E-01
H41 1.581812885416E-01 -2.006211939636E-01 1.257131341004E-01
C42 2.074103152240E-01 -3.946823459467E-01 2.397705972718E-01
H43 2.694726516145E-01 4.333066007942E-01 3.697534510957E-01
H44 1.529428168284E-01 -4.699013119932E-01 1.894106295402E-01
C45 -4.579660308110E-02 -3.336171494794E-01 -2.047674862089E-02
C46 9.626518072577E-02 -4.246507281087E-01 -6.459890464477E-02
C47 -9.777455166800E-02 -1.656112727077E-01 -3.835763545831E-02
C48 -1.420327319258E-01 -4.098912561131E-01 4.661362606408E-02
C49 1.420327319258E-01 4.098912561131E-01 -4.661362606408E-02
C50 1.991969859354E-01 -3.473130239821E-01 -1.314177842709E-01
H51 -2.642356069054E-02 -1.067149178436E-01 -8.865454055023E-02
C52 -2.332228969117E-01 -7.889321102848E-02 8.152576827667E-03
C53 -9.626518072579E-02 4.246507281087E-01 6.459890464477E-02
C54 -2.798284143920E-01 -3.130249758536E-01 9.665866423573E-02
C55 2.798284143919E-01 3.130249758536E-01 -9.665866423573E-02
C56 4.579660308108E-02 3.336171494794E-01 2.047674862089E-02
C57 1.460392206563E-01 -2.813965137149E-01 -2.326452766612E-01
C58 3.511500556787E-01 -3.412679441566E-01 -9.494690293676E-02
H59 -2.704638948209E-01 4.823452107026E-02 -5.808789148079E-03
C60 -3.241701790804E-01 -1.531462595788E-01 7.819928596490E-02
C61 -1.991969859354E-01 3.473130239821E-01 1.314177842709E-01
H62 -3.497645782057E-01 -3.686188804313E-01 1.503080742671E-01
H63 3.497645782056E-01 3.686188804313E-01 -1.503080742671E-01
C64 3.241701790804E-01 1.531462595788E-01 -7.819928596490E-02
C65 9.777455166798E-02 1.656112727077E-01 3.835763545831E-02
H66 2.810840528126E-02 -2.851927275545E-01 -2.612940345619E-01
C67 2.428270964082E-01 -2.109730371254E-01 -2.963379782014E-01
H68 3.917723400953E-01 -3.898464668077E-01 -1.550081968498E-02
C69 4.489764823025E-01 -2.728010949562E-01 -1.594170690582E-01
H70 -4.280255002053E-01 -8.189792091233E-02 1.178144786158E-01
C71 -1.460392206563E-01 2.813965137149E-01 2.326452766612E-01
C72 -3.511500556788E-01 3.412679441567E-01 9.494690293676E-02
H73 4.280255002053E-01 8.189792091235E-02 -1.178144786158E-01
C74 2.332228969117E-01 7.889321102850E-02 -8.152576827667E-03
H75 2.642356069052E-02 1.067149178436E-01 8.865454055023E-02
H76 2.006211939636E-01 -1.581812885416E-01 -3.742868658996E-01
C77 3.946823459467E-01 -2.074103152240E-01 -2.602294027282E-01
H78 -4.333066007942E-01 -2.694726516145E-01 -1.302465489043E-01
H79 -2.810840528128E-02 2.851927275545E-01 2.612940345619E-01
C80 -2.428270964082E-01 2.109730371254E-01 2.963379782014E-01
H81 -3.917723400953E-01 3.898464668077E-01 1.550081968498E-02
C82 -4.489764823025E-01 2.728010949563E-01 1.594170690582E-01
H83 2.704638948209E-01 -4.823452107024E-02 5.808789148079E-03
H84 4.699013119932E-01 -1.529428168284E-01 -3.105893704598E-01
H85 -2.006211939636E-01 1.581812885417E-01 3.742868658996E-01
C86 -3.946823459467E-01 2.074103152240E-01 2.602294027282E-01
H87 4.333066007942E-01 2.694726516145E-01 1.302465489043E-01
H88 -4.699013119932E-01 1.529428168284E-01 3.105893704598E-01


#===END
