###############################################################
#
#primitive cell cif file
#
###############################################################

DP910Aposm15_data

_symmetry_space_group_name_H-M 'P 1'
_cell_length_a      8.64136129
_cell_length_b      8.64136129
_cell_length_c      12.29000000
_cell_angle_alpha   89.628883
_cell_angle_beta    90.371117
_cell_angle_gamma   76.418725

loop_
_atom_site_label
_atom_site_fract_x
_atom_site_fract_y
_atom_site_fract_z
C1 -3.348559191066E-01 -4.710405685022E-02 -4.767972198181E-01
C2 -4.247351313053E-01 9.684712959309E-02 -4.340220746780E-01
C3 -1.668847904257E-01 -9.892353515467E-02 -4.583627608998E-01
C4 -4.106839330395E-01 -1.446025254805E-01 4.560900007768E-01
C5 4.106839330395E-01 1.446025254805E-01 -4.560900007768E-01
C6 -3.464542361465E-01 2.001577778011E-01 -3.671448534776E-01
H7 -1.082584143744E-01 -2.546539814224E-02 -4.096634470993E-01
C8 -7.979678153847E-02 -2.358917681985E-01 4.972302579826E-01
C9 4.247351313053E-01 -9.684712959309E-02 4.340220746780E-01
C10 -3.136729277624E-01 -2.860650503433E-01 4.104028782774E-01
C11 3.136729277624E-01 2.860650503433E-01 -4.104028782774E-01
C12 3.348559191066E-01 4.710405685022E-02 4.767972198181E-01
C13 -2.788580048065E-01 1.498469053516E-01 -2.655720218902E-01
C14 -3.400133931214E-01 3.515605423319E-01 -4.048660299838E-01
H15 4.750042592154E-02 -2.717707375666E-01 -4.892472735536E-01
C16 -1.541719627812E-01 -3.305947474601E-01 4.304357889428E-01
C17 3.464542361465E-01 -2.001577778011E-01 3.671448534776E-01
H18 -3.686169977614E-01 -3.582924579851E-01 3.581590917038E-01
H19 3.686169977614E-01 3.582924579851E-01 -3.581590917038E-01
C20 1.541719627812E-01 3.305947474601E-01 -4.304357889428E-01
C21 1.668847904257E-01 9.892353515467E-02 4.583627608998E-01
H22 -2.820926353575E-01 3.278432235591E-02 -2.348016385561E-01
C23 -2.060192300567E-01 2.476508018624E-01 -2.041951246475E-01
H24 -3.896092295435E-01 3.911410266890E-01 -4.842272371295E-01
C25 -2.699976545065E-01 4.505664901936E-01 -3.425094120270E-01
H26 -8.286841472219E-02 -4.371655157249E-01 3.938523882163E-01
C27 2.788580048065E-01 -1.498469053516E-01 2.655720218902E-01
C28 3.400133931214E-01 -3.515605423319E-01 4.048660299838E-01
H29 8.286841472219E-02 4.371655157249E-01 -3.938523882163E-01
C30 7.979678153847E-02 2.358917681985E-01 -4.972302579826E-01
H31 1.082584143744E-01 2.546539814224E-02 4.096634470993E-01
H32 -1.516674707444E-01 2.063274696692E-01 -1.264613109836E-01
C33 -2.021788498800E-01 3.985509853707E-01 -2.420334351088E-01
H34 -2.674472720623E-01 -4.324179243294E-01 -3.732748347758E-01
H35 2.820926353575E-01 -3.278432235591E-02 2.348016385561E-01
C36 2.060192300567E-01 -2.476508018624E-01 2.041951246475E-01
H37 3.896092295435E-01 -3.911410266890E-01 4.842272371295E-01
C38 2.699976545065E-01 -4.505664901936E-01 3.425094120270E-01
H39 -4.750042592154E-02 2.717707375666E-01 4.892472735536E-01
H40 -1.460510185402E-01 4.743974767214E-01 -1.934340283673E-01
H41 1.516674707444E-01 -2.063274696692E-01 1.264613109836E-01
C42 2.021788498800E-01 -3.985509853707E-01 2.420334351088E-01
H43 2.674472720623E-01 4.324179243294E-01 3.732748347758E-01
H44 1.460510185402E-01 -4.743974767214E-01 1.934340283673E-01
C45 -4.710405685023E-02 -3.348559191066E-01 -2.320278018188E-02
C46 9.684712959308E-02 -4.247351313053E-01 -6.597792532202E-02
C47 -9.892353515468E-02 -1.668847904257E-01 -4.163723910020E-02
C48 -1.446025254805E-01 -4.106839330395E-01 4.390999922317E-02
C49 1.446025254805E-01 4.106839330395E-01 -4.390999922317E-02
C50 2.001577778011E-01 -3.464542361465E-01 -1.328551465224E-01
H51 -2.546539814225E-02 -1.082584143744E-01 -9.033655290072E-02
C52 -2.358917681985E-01 -7.979678153846E-02 2.769742017366E-03
C53 -9.684712959310E-02 4.247351313053E-01 6.597792532202E-02
C54 -2.860650503434E-01 -3.136729277624E-01 8.959712172261E-02
C55 2.860650503433E-01 3.136729277624E-01 -8.959712172261E-02
C56 4.710405685021E-02 3.348559191066E-01 2.320278018188E-02
C57 1.498469053516E-01 -2.788580048065E-01 -2.344279781098E-01
C58 3.515605423319E-01 -3.400133931214E-01 -9.513397001624E-02
H59 -2.717707375666E-01 4.750042592155E-02 -1.075272644640E-02
C60 -3.305947474601E-01 -1.541719627812E-01 6.956421105716E-02
C61 -2.001577778011E-01 3.464542361465E-01 1.328551465224E-01
H62 -3.582924579852E-01 -3.686169977614E-01 1.418409082962E-01
H63 3.582924579851E-01 3.686169977614E-01 -1.418409082962E-01
C64 3.305947474600E-01 1.541719627812E-01 -6.956421105716E-02
C65 9.892353515466E-02 1.668847904258E-01 4.163723910020E-02
H66 3.278432235590E-02 -2.820926353575E-01 -2.651983614439E-01
C67 2.476508018624E-01 -2.060192300567E-01 -2.958048753525E-01
H68 3.911410266890E-01 -3.896092295435E-01 -1.577276287047E-02
C69 4.505664901936E-01 -2.699976545065E-01 -1.574905879730E-01
H70 -4.371655157249E-01 -8.286841472219E-02 1.061476117837E-01
C71 -1.498469053516E-01 2.788580048065E-01 2.344279781098E-01
C72 -3.515605423319E-01 3.400133931214E-01 9.513397001624E-02
H73 4.371655157249E-01 8.286841472220E-02 -1.061476117837E-01
C74 2.358917681985E-01 7.979678153848E-02 -2.769742017367E-03
H75 2.546539814223E-02 1.082584143744E-01 9.033655290072E-02
H76 2.063274696692E-01 -1.516674707444E-01 -3.735386890164E-01
C77 3.985509853707E-01 -2.021788498800E-01 -2.579665648912E-01
H78 -4.324179243294E-01 -2.674472720623E-01 -1.267251652242E-01
H79 -3.278432235592E-02 2.820926353575E-01 2.651983614439E-01
C80 -2.476508018624E-01 2.060192300567E-01 2.958048753525E-01
H81 -3.911410266891E-01 3.896092295435E-01 1.577276287047E-02
C82 -4.505664901937E-01 2.699976545065E-01 1.574905879730E-01
H83 2.717707375666E-01 -4.750042592153E-02 1.075272644640E-02
H84 4.743974767214E-01 -1.460510185402E-01 -3.065659716327E-01
H85 -2.063274696692E-01 1.516674707444E-01 3.735386890164E-01
C86 -3.985509853707E-01 2.021788498800E-01 2.579665648912E-01
H87 4.324179243294E-01 2.674472720624E-01 1.267251652242E-01
H88 -4.743974767214E-01 1.460510185402E-01 3.065659716327E-01


#===END
