###############################################################
#
#                    Primitive-cell CIF File
#
###############################################################

DPA_opt_data

_symmetry_space_group_name_H-M 'P 1'
_cell_length_a      17.97300000
_cell_length_b      7.35200000
_cell_length_c      6.24500000
_cell_angle_alpha   90.000000
_cell_angle_beta    90.646004
_cell_angle_gamma   90.000000

loop_
_atom_site_label
_atom_site_fract_x
_atom_site_fract_y
_atom_site_fract_z
C1 1.585689939296E-01 -4.011183676214E-01 4.937015008986E-01
C2 -1.585689939296E-01 9.888163237856E-02 6.298499101378E-03
C3 -1.585689939296E-01 4.011183676214E-01 -4.937015008986E-01
C4 1.585689939296E-01 -9.888163237856E-02 -6.298499101379E-03
H5 1.713239647564E-01 -3.176225083109E-01 -3.682367049045E-01
H6 -1.713239647564E-01 1.823774916891E-01 -1.317632950955E-01
H7 -1.713239647564E-01 3.176225083109E-01 3.682367049045E-01
H8 1.713239647564E-01 -1.823774916891E-01 1.317632950955E-01
C9 8.590015691036E-02 -4.035294389514E-01 4.162144675250E-01
C10 -8.590015691036E-02 9.647056104865E-02 8.378553247502E-02
C11 -8.590015691036E-02 4.035294389514E-01 -4.162144675250E-01
C12 8.590015691036E-02 -9.647056104865E-02 -8.378553247502E-02
H13 4.377095842484E-02 -3.254054156759E-01 4.974877751141E-01
H14 -4.377095842484E-02 1.745945843241E-01 2.512224885946E-03
H15 -4.377095842484E-02 3.254054156759E-01 -4.974877751141E-01
H16 4.377095842484E-02 -1.745945843241E-01 -2.512224885947E-03
C17 6.718049971476E-02 4.947396805820E-01 2.360285018189E-01
C18 -6.718049971476E-02 -5.260319418043E-03 2.639714981811E-01
C19 -6.718049971476E-02 -4.947396805820E-01 -2.360285018189E-01
C20 6.718049971476E-02 5.260319418043E-03 -2.639714981811E-01
H21 1.012525209953E-02 4.913435282014E-01 1.787132120641E-01
H22 -1.012525209953E-02 -8.656471798587E-03 3.212867879359E-01
H23 -1.012525209953E-02 -4.913435282014E-01 -1.787132120641E-01
H24 1.012525209953E-02 8.656471798587E-03 -3.212867879359E-01
C25 1.222995586073E-01 3.969891058234E-01 1.319695307241E-01
C26 -1.222995586073E-01 -1.030108941766E-01 3.680304692759E-01
C27 -1.222995586073E-01 -3.969891058234E-01 -1.319695307241E-01
C28 1.222995586073E-01 1.030108941766E-01 -3.680304692759E-01
H29 1.091068390435E-01 3.171463023041E-01 -9.037875509833E-03
H30 -1.091068390435E-01 -1.828536976959E-01 -4.909621244902E-01
H31 -1.091068390435E-01 -3.171463023041E-01 9.037875509833E-03
H32 1.091068390435E-01 1.828536976959E-01 4.909621244902E-01
C33 1.948713877211E-01 3.985871009162E-01 2.104122578546E-01
C34 -1.948713877211E-01 -1.014128990838E-01 2.895877421454E-01
C35 -1.948713877211E-01 -3.985871009162E-01 -2.104122578546E-01
C36 1.948713877211E-01 1.014128990838E-01 -2.895877421454E-01
H37 2.362310183002E-01 3.178851765465E-01 1.295646753538E-01
H38 -2.362310183002E-01 -1.821148234535E-01 3.704353246462E-01
H39 -2.362310183002E-01 -3.178851765465E-01 -1.295646753538E-01
H40 2.362310183002E-01 1.821148234535E-01 -3.704353246462E-01
C41 2.146549825552E-01 4.987889905679E-01 3.932809679328E-01
C42 -2.146549825552E-01 -1.211009432112E-03 1.067190320672E-01
C43 -2.146549825552E-01 -4.987889905679E-01 -3.932809679328E-01
C44 2.146549825552E-01 1.211009432112E-03 -1.067190320672E-01
C45 2.921222772910E-01 -4.984754884834E-01 4.767997612722E-01
C46 -2.921222772910E-01 1.524511516566E-03 2.320023872779E-02
C47 -2.921222772910E-01 4.984754884834E-01 -4.767997612722E-01
C48 2.921222772910E-01 -1.524511516567E-03 -2.320023872779E-02
C49 3.071720984596E-01 -4.410502834108E-01 -3.079992307301E-01
C50 -3.071720984596E-01 5.894971658917E-02 -1.920007692699E-01
C51 -3.071720984596E-01 4.410502834108E-01 3.079992307301E-01
C52 3.071720984596E-01 -5.894971658917E-02 1.920007692699E-01
H53 2.613693716198E-01 -4.126141980080E-01 -2.022615401250E-01
H54 -2.613693716198E-01 8.738580199203E-02 -2.977384598750E-01
H55 -2.613693716198E-01 4.126141980080E-01 2.022615401250E-01
H56 2.613693716198E-01 -8.738580199203E-02 2.977384598750E-01
C57 3.779816367102E-01 -4.214180358348E-01 -2.322372215979E-01
C58 -3.779816367102E-01 7.858196416521E-02 -2.677627784021E-01
C59 -3.779816367102E-01 4.214180358348E-01 2.322372215979E-01
C60 3.779816367102E-01 -7.858196416521E-02 2.677627784021E-01
H61 3.877120989369E-01 -3.741209101263E-01 -7.021648219963E-02
H62 -3.877120989369E-01 1.258790898737E-01 -4.297835178004E-01
H63 -3.877120989369E-01 3.741209101263E-01 7.021648219963E-02
H64 3.877120989369E-01 -1.258790898737E-01 4.297835178004E-01
C65 4.403631643463E-01 -4.595635575097E-01 -3.633538801290E-01
C66 -4.403631643463E-01 4.043644249029E-02 -1.366461198710E-01
C67 -4.403631643463E-01 4.595635575097E-01 3.633538801290E-01
C68 4.403631643463E-01 -4.043644249029E-02 1.366461198710E-01
C69 4.262807415777E-01 4.732783973655E-01 4.240470500106E-01
C70 -4.262807415777E-01 -2.672160263454E-02 7.595294998942E-02
C71 -4.262807415777E-01 -4.732783973655E-01 -4.240470500106E-01
C72 4.262807415777E-01 2.672160263454E-02 -7.595294998942E-02
C73 3.514434414614E-01 4.557181659588E-01 3.509047686513E-01
C74 -3.514434414614E-01 -4.428183404120E-02 1.490952313487E-01
C75 -3.514434414614E-01 -4.557181659588E-01 -3.509047686513E-01
C76 3.514434414614E-01 4.428183404120E-02 -1.490952313487E-01
H77 3.426995595772E-01 4.115326611827E-01 1.872262626779E-01
H78 -3.426995595772E-01 -8.846733881729E-02 3.127737373221E-01
H79 -3.426995595772E-01 -4.115326611827E-01 -1.872262626779E-01
H80 3.426995595772E-01 8.846733881729E-02 -3.127737373221E-01
C81 -4.865755644236E-01 -4.335631931361E-01 -2.927498822491E-01
C82 4.865755644236E-01 6.643680686388E-02 -2.072501177509E-01
C83 4.865755644236E-01 4.335631931361E-01 2.927498822491E-01
C84 -4.865755644236E-01 -6.643680686388E-02 2.072501177509E-01
H85 -4.764013976488E-01 -3.817532909243E-01 -1.325964930529E-01
H86 4.764013976488E-01 1.182467090757E-01 -3.674035069471E-01
H87 4.764013976488E-01 3.817532909243E-01 1.325964930529E-01
H88 -4.764013976488E-01 -1.182467090757E-01 3.674035069471E-01


#===END
