###############################################################
#
#                    Primitive-cell CIF File
#
###############################################################

penta_opt_data

_symmetry_space_group_name_H-M 'P 1'
_cell_length_a      7.90000000
_cell_length_b      6.06000000
_cell_length_c      16.01000000
_cell_angle_alpha   101.900002
_cell_angle_beta    112.599998
_cell_angle_gamma   85.800003

loop_
_atom_site_label
_atom_site_fract_x
_atom_site_fract_y
_atom_site_fract_z
C1 1.263088565977E-01 4.621456427939E-02 4.061364786216E-01
C2 -1.263088565977E-01 -4.621456427939E-02 -4.061364786216E-01
C3 -1.830857151630E-02 -2.630766632514E-01 2.803085536328E-01
C4 1.830857151630E-02 2.630766632514E-01 -2.803085536328E-01
C5 4.007256787391E-02 -1.707593409764E-01 3.717396118102E-01
C6 -4.007256787391E-02 1.707593409764E-01 -3.717396118102E-01
C7 1.520642325999E-01 1.636928457090E-01 3.480947243461E-01
C8 -1.520642325999E-01 -1.636928457090E-01 -3.480947243461E-01
C9 9.444552932562E-02 7.293922794313E-02 2.513251376085E-01
C10 -9.444552932562E-02 -7.293922794313E-02 -2.513251376085E-01
C11 1.207551901715E-01 1.875322963679E-01 1.908279439462E-01
C12 -1.207551901715E-01 -1.875322963679E-01 -1.908279439462E-01
C13 6.186682172411E-02 9.723537610667E-02 9.550933909934E-02
C14 -6.186682172411E-02 -9.723537610667E-02 -9.550933909934E-02
C15 8.720769179893E-02 2.120082555358E-01 3.384092320239E-02
C16 -8.720769179893E-02 -2.120082555358E-01 -3.384092320239E-02
C17 -2.771946832398E-02 -1.217601707502E-01 6.055520992769E-02
C18 2.771946832398E-02 1.217601707502E-01 -6.055520992769E-02
C19 -5.242346892832E-02 -2.370845174591E-01 1.231392173300E-01
C20 5.242346892832E-02 2.370845174591E-01 -1.231392173300E-01
C21 6.210428766544E-03 -1.465448263091E-01 2.164790240858E-01
C22 -6.210428766544E-03 1.465448263091E-01 -2.164790240858E-01
H23 1.709534197847E-01 1.172959545500E-01 4.791460670917E-01
H24 -1.709534197847E-01 -1.172959545500E-01 -4.791460670917E-01
H25 -8.447661490284E-02 -4.269331850457E-01 2.541479926856E-01
H26 8.447661490284E-02 4.269331850457E-01 -2.541479926856E-01
H27 2.014616946147E-02 -2.616572959077E-01 4.189381393869E-01
H28 -2.014616946147E-02 2.616572959077E-01 -4.189381393869E-01
H29 2.153114406010E-01 3.295384862318E-01 3.735485927207E-01
H30 -2.153114406010E-01 -3.295384862318E-01 -3.735485927207E-01
H31 1.877594719607E-01 3.511073302352E-01 2.169432320380E-01
H32 -1.877594719607E-01 -3.511073302352E-01 -2.169432320380E-01
H33 1.542107605806E-01 3.755505555331E-01 5.983243805332E-02
H34 -1.542107605806E-01 -3.755505555331E-01 -5.983243805332E-02
H35 -1.187961996868E-01 -4.009920283929E-01 9.712316727710E-02
H36 1.187961996868E-01 4.009920283929E-01 -9.712316727710E-02
C37 -4.474969521425E-01 -4.278399883256E-01 3.969353362993E-01
C38 4.474969521425E-01 4.278399883256E-01 -3.969353362993E-01
C39 4.968814989341E-01 -3.140532458806E-01 3.260955862747E-01
C40 -4.968814989341E-01 3.140532458806E-01 -3.260955862747E-01
C41 -4.853869114127E-01 -4.116533052290E-01 2.404382066632E-01
C42 4.853869114127E-01 4.116533052290E-01 -2.404382066632E-01
C43 4.590505541329E-01 -2.998539292988E-01 1.671960485969E-01
C44 -4.590505541329E-01 2.998539292988E-01 -1.671960485969E-01
C45 4.780754934084E-01 -3.965147535941E-01 8.323873072483E-02
C46 -4.780754934084E-01 3.965147535941E-01 -8.323873072483E-02
C47 4.232774116257E-01 -2.840167665621E-01 9.162633283858E-03
C48 -4.232774116257E-01 2.840167665621E-01 -9.162633283858E-03
C49 -4.430745449819E-01 3.804652016632E-01 7.374295807329E-02
C50 4.430745449819E-01 -3.804652016632E-01 -7.374295807329E-02
C51 -3.876396660629E-01 2.682371024819E-01 1.488991548322E-01
C52 3.876396660629E-01 -2.682371024819E-01 -1.488991548322E-01
C53 -4.065834676617E-01 3.655131893958E-01 2.309885597670E-01
C54 4.065834676617E-01 -3.655131893958E-01 -2.309885597670E-01
C55 -3.491983656060E-01 2.534530275449E-01 3.078585734364E-01
C56 3.491983656060E-01 -2.534530275449E-01 -3.078585734364E-01
C57 -3.691329239461E-01 3.528187798203E-01 3.877648813863E-01
C58 3.691329239461E-01 -3.528187798203E-01 -3.877648813863E-01
H59 -4.618419266479E-01 -3.512220190180E-01 4.612541262050E-01
H60 4.618419266479E-01 3.512220190180E-01 -4.612541262050E-01
H61 4.383027170613E-01 -1.473396362080E-01 3.333721567404E-01
H62 -4.383027170613E-01 1.473396362080E-01 -3.333721567404E-01
H63 4.001125478114E-01 -1.332727433218E-01 1.743488846957E-01
H64 -4.001125478114E-01 1.332727433218E-01 -1.743488846957E-01
H65 3.642665185713E-01 -1.174762386415E-01 1.630373484018E-02
H66 -3.642665185713E-01 1.174762386415E-01 -1.630373484018E-02
H67 -3.284473264069E-01 1.017570950672E-01 1.418681869714E-01
H68 3.284473264069E-01 -1.017570950672E-01 -1.418681869714E-01
H69 -2.891178628484E-01 8.760348899667E-02 3.009612551598E-01
H70 2.891178628484E-01 -8.760348899667E-02 -3.009612551598E-01
H71 -3.250626388632E-01 2.659934672353E-01 4.453403083483E-01
H72 3.250626388632E-01 -2.659934672353E-01 -4.453403083483E-01


#===END
