###############################################################################
#
#                    CRYSTAL17 CIF FILE
#
###############################################################################

data_OPT_STEP_1

_symmetry_space_group_name_H-M 'P 1'
_cell_length_a     26.78900000
_cell_length_b      7.17000000
_cell_length_c     14.21100000
_cell_angle_alpha   90.000000
_cell_angle_beta   90.000000
_cell_angle_gamma   90.000000

loop_
_atom_site_label
_atom_site_fract_x
_atom_site_fract_y
_atom_site_fract_z
C1  2.737000000000E-02  5.227245879290E-19  0.000000000000E+00
C2 -2.737000000000E-02 -5.000000000000E-01 -5.000000000000E-01
C3 -2.737000000000E-02  1.353574001682E-19  0.000000000000E+00
C4  2.737000000000E-02 -5.000000000000E-01 -5.000000000000E-01
C5  5.314000000000E-02 -1.446400000000E-01  4.914000000000E-02
C6 -5.314000000000E-02 -3.553600000000E-01 -4.508600000000E-01
C7  5.314000000000E-02  1.446400000000E-01 -4.914000000000E-02
C8 -5.314000000000E-02  3.553600000000E-01  4.508600000000E-01
C9 -5.314000000000E-02  1.446400000000E-01 -4.914000000000E-02
C10  5.314000000000E-02  3.553600000000E-01  4.508600000000E-01
C11 -5.314000000000E-02 -1.446400000000E-01  4.914000000000E-02
C12  5.314000000000E-02 -3.553600000000E-01 -4.508600000000E-01
C13  2.678000000000E-02 -2.957800000000E-01  8.755000000000E-02
C14 -2.678000000000E-02 -2.042200000000E-01 -4.124500000000E-01
C15  2.678000000000E-02  2.957800000000E-01 -8.755000000000E-02
C16 -2.678000000000E-02  2.042200000000E-01  4.124500000000E-01
C17 -2.678000000000E-02  2.957800000000E-01 -8.755000000000E-02
C18  2.678000000000E-02  2.042200000000E-01  4.124500000000E-01
C19 -2.678000000000E-02 -2.957800000000E-01  8.755000000000E-02
C20  2.678000000000E-02 -2.042200000000E-01 -4.124500000000E-01
C21  5.191000000000E-02 -4.475400000000E-01  1.341200000000E-01
C22 -5.191000000000E-02 -5.246000000000E-02 -3.658800000000E-01
C23  5.191000000000E-02  4.475400000000E-01 -1.341200000000E-01
C24 -5.191000000000E-02  5.246000000000E-02  3.658800000000E-01
C25 -5.191000000000E-02  4.475400000000E-01 -1.341200000000E-01
C26  5.191000000000E-02  5.246000000000E-02  3.658800000000E-01
C27 -5.191000000000E-02 -4.475400000000E-01  1.341200000000E-01
C28  5.191000000000E-02 -5.246000000000E-02 -3.658800000000E-01
C29  2.646000000000E-02  4.106600000000E-01  1.753400000000E-01
C30 -2.646000000000E-02  8.934000000000E-02 -3.246600000000E-01
C31  2.646000000000E-02 -4.106600000000E-01 -1.753400000000E-01
C32 -2.646000000000E-02 -8.934000000000E-02  3.246600000000E-01
C33 -2.646000000000E-02 -4.106600000000E-01 -1.753400000000E-01
C34  2.646000000000E-02 -8.934000000000E-02  3.246600000000E-01
C35 -2.646000000000E-02  4.106600000000E-01  1.753400000000E-01
C36  2.646000000000E-02  8.934000000000E-02 -3.246600000000E-01
C37  1.076000000000E-01 -1.344800000000E-01  7.274000000000E-02
C38 -1.076000000000E-01 -3.655200000000E-01 -4.272600000000E-01
C39  1.076000000000E-01  1.344800000000E-01 -7.274000000000E-02
C40 -1.076000000000E-01  3.655200000000E-01  4.272600000000E-01
C41 -1.076000000000E-01  1.344800000000E-01 -7.274000000000E-02
C42  1.076000000000E-01  3.655200000000E-01  4.272600000000E-01
C43 -1.076000000000E-01 -1.344800000000E-01  7.274000000000E-02
C44  1.076000000000E-01 -3.655200000000E-01 -4.272600000000E-01
C45  1.429200000000E-01 -2.481700000000E-01  2.881000000000E-02
C46 -1.429200000000E-01 -2.518300000000E-01 -4.711900000000E-01
C47  1.429200000000E-01  2.481700000000E-01 -2.881000000000E-02
C48 -1.429200000000E-01  2.518300000000E-01  4.711900000000E-01
C49 -1.429200000000E-01  2.481700000000E-01 -2.881000000000E-02
C50  1.429200000000E-01  2.518300000000E-01  4.711900000000E-01
C51 -1.429200000000E-01 -2.481700000000E-01  2.881000000000E-02
C52  1.429200000000E-01 -2.518300000000E-01 -4.711900000000E-01
C53  1.919900000000E-01 -2.508900000000E-01  5.979000000000E-02
C54 -1.919900000000E-01 -2.491100000000E-01 -4.402100000000E-01
C55  1.919900000000E-01  2.508900000000E-01 -5.979000000000E-02
C56 -1.919900000000E-01  2.491100000000E-01  4.402100000000E-01
C57 -1.919900000000E-01  2.508900000000E-01 -5.979000000000E-02
C58  1.919900000000E-01  2.491100000000E-01  4.402100000000E-01
C59 -1.919900000000E-01 -2.508900000000E-01  5.979000000000E-02
C60  1.919900000000E-01 -2.491100000000E-01 -4.402100000000E-01
C61  2.068500000000E-01 -1.389000000000E-01  1.344800000000E-01
C62 -2.068500000000E-01 -3.611000000000E-01 -3.655200000000E-01
C63  2.068500000000E-01  1.389000000000E-01 -1.344800000000E-01
C64 -2.068500000000E-01  3.611000000000E-01  3.655200000000E-01
C65 -2.068500000000E-01  1.389000000000E-01 -1.344800000000E-01
C66  2.068500000000E-01  3.611000000000E-01  3.655200000000E-01
C67 -2.068500000000E-01 -1.389000000000E-01  1.344800000000E-01
C68  2.068500000000E-01 -3.611000000000E-01 -3.655200000000E-01
C69  1.721900000000E-01 -2.510000000000E-02  1.785700000000E-01
C70 -1.721900000000E-01 -4.749000000000E-01 -3.214300000000E-01
C71  1.721900000000E-01  2.510000000000E-02 -1.785700000000E-01
C72 -1.721900000000E-01  4.749000000000E-01  3.214300000000E-01
C73 -1.721900000000E-01  2.510000000000E-02 -1.785700000000E-01
C74  1.721900000000E-01  4.749000000000E-01  3.214300000000E-01
C75 -1.721900000000E-01 -2.510000000000E-02  1.785700000000E-01
C76  1.721900000000E-01 -4.749000000000E-01 -3.214300000000E-01
C77  1.230200000000E-01 -2.362000000000E-02  1.481600000000E-01
C78 -1.230200000000E-01 -4.763800000000E-01 -3.518400000000E-01
C79  1.230200000000E-01  2.362000000000E-02 -1.481600000000E-01
C80 -1.230200000000E-01  4.763800000000E-01  3.518400000000E-01
C81 -1.230200000000E-01  2.362000000000E-02 -1.481600000000E-01
C82  1.230200000000E-01  4.763800000000E-01  3.518400000000E-01
C83 -1.230200000000E-01 -2.362000000000E-02  1.481600000000E-01
C84  1.230200000000E-01 -4.763800000000E-01 -3.518400000000E-01
H85  8.830000000000E-02 -4.470000000000E-01  1.357000000000E-01
H86 -8.830000000000E-02 -5.300000000000E-02 -3.643000000000E-01
H87  8.830000000000E-02  4.470000000000E-01 -1.357000000000E-01
H88 -8.830000000000E-02  5.300000000000E-02  3.643000000000E-01
H89 -8.830000000000E-02  4.470000000000E-01 -1.357000000000E-01
H90  8.830000000000E-02  5.300000000000E-02  3.643000000000E-01
H91 -8.830000000000E-02 -4.470000000000E-01  1.357000000000E-01
H92  8.830000000000E-02 -5.300000000000E-02 -3.643000000000E-01
H93  4.380000000000E-02  3.110000000000E-01  2.065000000000E-01
H94 -4.380000000000E-02  1.890000000000E-01 -2.935000000000E-01
H95  4.380000000000E-02 -3.110000000000E-01 -2.065000000000E-01
H96 -4.380000000000E-02 -1.890000000000E-01  2.935000000000E-01
H97 -4.380000000000E-02 -3.110000000000E-01 -2.065000000000E-01
H98  4.380000000000E-02 -1.890000000000E-01  2.935000000000E-01
H99 -4.380000000000E-02  3.110000000000E-01  2.065000000000E-01
H100  4.380000000000E-02  1.890000000000E-01 -2.935000000000E-01
H101  1.328000000000E-01 -3.270000000000E-01 -2.560000000000E-02
H102 -1.328000000000E-01 -1.730000000000E-01  4.744000000000E-01
H103  1.328000000000E-01  3.270000000000E-01  2.560000000000E-02
H104 -1.328000000000E-01  1.730000000000E-01 -4.744000000000E-01
H105 -1.328000000000E-01  3.270000000000E-01  2.560000000000E-02
H106  1.328000000000E-01  1.730000000000E-01 -4.744000000000E-01
H107 -1.328000000000E-01 -3.270000000000E-01 -2.560000000000E-02
H108  1.328000000000E-01 -1.730000000000E-01  4.744000000000E-01
H109  2.167000000000E-01 -3.320000000000E-01  2.790000000000E-02
H110 -2.167000000000E-01 -1.680000000000E-01 -4.721000000000E-01
H111  2.167000000000E-01  3.320000000000E-01 -2.790000000000E-02
H112 -2.167000000000E-01  1.680000000000E-01  4.721000000000E-01
H113 -2.167000000000E-01  3.320000000000E-01 -2.790000000000E-02
H114  2.167000000000E-01  1.680000000000E-01  4.721000000000E-01
H115 -2.167000000000E-01 -3.320000000000E-01  2.790000000000E-02
H116  2.167000000000E-01 -1.680000000000E-01 -4.721000000000E-01
H117  2.413000000000E-01 -1.400000000000E-01  1.546000000000E-01
H118 -2.413000000000E-01 -3.600000000000E-01 -3.454000000000E-01
H119  2.413000000000E-01  1.400000000000E-01 -1.546000000000E-01
H120 -2.413000000000E-01  3.600000000000E-01  3.454000000000E-01
H121 -2.413000000000E-01  1.400000000000E-01 -1.546000000000E-01
H122  2.413000000000E-01  3.600000000000E-01  3.454000000000E-01
H123 -2.413000000000E-01 -1.400000000000E-01  1.546000000000E-01
H124  2.413000000000E-01 -3.600000000000E-01 -3.454000000000E-01
H125  1.825000000000E-01  5.400000000000E-02  2.311000000000E-01
H126 -1.825000000000E-01  4.460000000000E-01 -2.689000000000E-01
H127  1.825000000000E-01 -5.400000000000E-02 -2.311000000000E-01
H128 -1.825000000000E-01 -4.460000000000E-01  2.689000000000E-01
H129 -1.825000000000E-01 -5.400000000000E-02 -2.311000000000E-01
H130  1.825000000000E-01 -4.460000000000E-01  2.689000000000E-01
H131 -1.825000000000E-01  5.400000000000E-02  2.311000000000E-01
H132  1.825000000000E-01  4.460000000000E-01 -2.689000000000E-01
H133  9.780000000000E-02  5.400000000000E-02  1.804000000000E-01
H134 -9.780000000000E-02  4.460000000000E-01 -3.196000000000E-01
H135  9.780000000000E-02 -5.400000000000E-02 -1.804000000000E-01
H136 -9.780000000000E-02 -4.460000000000E-01  3.196000000000E-01
H137 -9.780000000000E-02 -5.400000000000E-02 -1.804000000000E-01
H138  9.780000000000E-02 -4.460000000000E-01  3.196000000000E-01
H139 -9.780000000000E-02  5.400000000000E-02  1.804000000000E-01
H140  9.780000000000E-02  4.460000000000E-01 -3.196000000000E-01


#===END

data_OPT_STEP_2

_symmetry_space_group_name_H-M 'P 1'
_cell_length_a     26.78900000
_cell_length_b      7.17000000
_cell_length_c     14.21100000
_cell_angle_alpha   90.000000
_cell_angle_beta   90.000000
_cell_angle_gamma   90.000000

loop_
_atom_site_label
_atom_site_fract_x
_atom_site_fract_y
_atom_site_fract_z
C1  2.737000000000E-02  3.626465851100E-19  0.000000000000E+00
C2 -2.737000000000E-02  5.000000000000E-01 -5.000000000000E-01
C3 -2.737000000000E-02 -3.626465851100E-19  0.000000000000E+00
C4  2.737000000000E-02  5.000000000000E-01 -5.000000000000E-01
C5  5.314000000000E-02 -1.446400000000E-01  4.914000000000E-02
C6 -5.314000000000E-02 -3.553600000000E-01 -4.508600000000E-01
C7  5.314000000000E-02  1.446400000000E-01 -4.914000000000E-02
C8 -5.314000000000E-02  3.553600000000E-01  4.508600000000E-01
C9 -5.314000000000E-02  1.446400000000E-01 -4.914000000000E-02
C10  5.314000000000E-02  3.553600000000E-01  4.508600000000E-01
C11 -5.314000000000E-02 -1.446400000000E-01  4.914000000000E-02
C12  5.314000000000E-02 -3.553600000000E-01 -4.508600000000E-01
C13  2.678000000000E-02 -2.957800000000E-01  8.755000000000E-02
C14 -2.678000000000E-02 -2.042200000000E-01 -4.124500000000E-01
C15  2.678000000000E-02  2.957800000000E-01 -8.755000000000E-02
C16 -2.678000000000E-02  2.042200000000E-01  4.124500000000E-01
C17 -2.678000000000E-02  2.957800000000E-01 -8.755000000000E-02
C18  2.678000000000E-02  2.042200000000E-01  4.124500000000E-01
C19 -2.678000000000E-02 -2.957800000000E-01  8.755000000000E-02
C20  2.678000000000E-02 -2.042200000000E-01 -4.124500000000E-01
C21  5.191000000000E-02 -4.475400000000E-01  1.341200000000E-01
C22 -5.191000000000E-02 -5.246000000000E-02 -3.658800000000E-01
C23  5.191000000000E-02  4.475400000000E-01 -1.341200000000E-01
C24 -5.191000000000E-02  5.246000000000E-02  3.658800000000E-01
C25 -5.191000000000E-02  4.475400000000E-01 -1.341200000000E-01
C26  5.191000000000E-02  5.246000000000E-02  3.658800000000E-01
C27 -5.191000000000E-02 -4.475400000000E-01  1.341200000000E-01
C28  5.191000000000E-02 -5.246000000000E-02 -3.658800000000E-01
C29  2.646000000000E-02  4.106600000000E-01  1.753400000000E-01
C30 -2.646000000000E-02  8.934000000000E-02 -3.246600000000E-01
C31  2.646000000000E-02 -4.106600000000E-01 -1.753400000000E-01
C32 -2.646000000000E-02 -8.934000000000E-02  3.246600000000E-01
C33 -2.646000000000E-02 -4.106600000000E-01 -1.753400000000E-01
C34  2.646000000000E-02 -8.934000000000E-02  3.246600000000E-01
C35 -2.646000000000E-02  4.106600000000E-01  1.753400000000E-01
C36  2.646000000000E-02  8.934000000000E-02 -3.246600000000E-01
C37  1.076000000000E-01 -1.344800000000E-01  7.274000000000E-02
C38 -1.076000000000E-01 -3.655200000000E-01 -4.272600000000E-01
C39  1.076000000000E-01  1.344800000000E-01 -7.274000000000E-02
C40 -1.076000000000E-01  3.655200000000E-01  4.272600000000E-01
C41 -1.076000000000E-01  1.344800000000E-01 -7.274000000000E-02
C42  1.076000000000E-01  3.655200000000E-01  4.272600000000E-01
C43 -1.076000000000E-01 -1.344800000000E-01  7.274000000000E-02
C44  1.076000000000E-01 -3.655200000000E-01 -4.272600000000E-01
C45  1.429200000000E-01 -2.481700000000E-01  2.881000000000E-02
C46 -1.429200000000E-01 -2.518300000000E-01 -4.711900000000E-01
C47  1.429200000000E-01  2.481700000000E-01 -2.881000000000E-02
C48 -1.429200000000E-01  2.518300000000E-01  4.711900000000E-01
C49 -1.429200000000E-01  2.481700000000E-01 -2.881000000000E-02
C50  1.429200000000E-01  2.518300000000E-01  4.711900000000E-01
C51 -1.429200000000E-01 -2.481700000000E-01  2.881000000000E-02
C52  1.429200000000E-01 -2.518300000000E-01 -4.711900000000E-01
C53  1.919900000000E-01 -2.508900000000E-01  5.979000000000E-02
C54 -1.919900000000E-01 -2.491100000000E-01 -4.402100000000E-01
C55  1.919900000000E-01  2.508900000000E-01 -5.979000000000E-02
C56 -1.919900000000E-01  2.491100000000E-01  4.402100000000E-01
C57 -1.919900000000E-01  2.508900000000E-01 -5.979000000000E-02
C58  1.919900000000E-01  2.491100000000E-01  4.402100000000E-01
C59 -1.919900000000E-01 -2.508900000000E-01  5.979000000000E-02
C60  1.919900000000E-01 -2.491100000000E-01 -4.402100000000E-01
C61  2.068500000000E-01 -1.389000000000E-01  1.344800000000E-01
C62 -2.068500000000E-01 -3.611000000000E-01 -3.655200000000E-01
C63  2.068500000000E-01  1.389000000000E-01 -1.344800000000E-01
C64 -2.068500000000E-01  3.611000000000E-01  3.655200000000E-01
C65 -2.068500000000E-01  1.389000000000E-01 -1.344800000000E-01
C66  2.068500000000E-01  3.611000000000E-01  3.655200000000E-01
C67 -2.068500000000E-01 -1.389000000000E-01  1.344800000000E-01
C68  2.068500000000E-01 -3.611000000000E-01 -3.655200000000E-01
C69  1.721900000000E-01 -2.510000000000E-02  1.785700000000E-01
C70 -1.721900000000E-01 -4.749000000000E-01 -3.214300000000E-01
C71  1.721900000000E-01  2.510000000000E-02 -1.785700000000E-01
C72 -1.721900000000E-01  4.749000000000E-01  3.214300000000E-01
C73 -1.721900000000E-01  2.510000000000E-02 -1.785700000000E-01
C74  1.721900000000E-01  4.749000000000E-01  3.214300000000E-01
C75 -1.721900000000E-01 -2.510000000000E-02  1.785700000000E-01
C76  1.721900000000E-01 -4.749000000000E-01 -3.214300000000E-01
C77  1.230200000000E-01 -2.362000000000E-02  1.481600000000E-01
C78 -1.230200000000E-01 -4.763800000000E-01 -3.518400000000E-01
C79  1.230200000000E-01  2.362000000000E-02 -1.481600000000E-01
C80 -1.230200000000E-01  4.763800000000E-01  3.518400000000E-01
C81 -1.230200000000E-01  2.362000000000E-02 -1.481600000000E-01
C82  1.230200000000E-01  4.763800000000E-01  3.518400000000E-01
C83 -1.230200000000E-01 -2.362000000000E-02  1.481600000000E-01
C84  1.230200000000E-01 -4.763800000000E-01 -3.518400000000E-01
H85  8.830000000000E-02 -4.470000000000E-01  1.357000000000E-01
H86 -8.830000000000E-02 -5.300000000000E-02 -3.643000000000E-01
H87  8.830000000000E-02  4.470000000000E-01 -1.357000000000E-01
H88 -8.830000000000E-02  5.300000000000E-02  3.643000000000E-01
H89 -8.830000000000E-02  4.470000000000E-01 -1.357000000000E-01
H90  8.830000000000E-02  5.300000000000E-02  3.643000000000E-01
H91 -8.830000000000E-02 -4.470000000000E-01  1.357000000000E-01
H92  8.830000000000E-02 -5.300000000000E-02 -3.643000000000E-01
H93  4.380000000000E-02  3.110000000000E-01  2.065000000000E-01
H94 -4.380000000000E-02  1.890000000000E-01 -2.935000000000E-01
H95  4.380000000000E-02 -3.110000000000E-01 -2.065000000000E-01
H96 -4.380000000000E-02 -1.890000000000E-01  2.935000000000E-01
H97 -4.380000000000E-02 -3.110000000000E-01 -2.065000000000E-01
H98  4.380000000000E-02 -1.890000000000E-01  2.935000000000E-01
H99 -4.380000000000E-02  3.110000000000E-01  2.065000000000E-01
H100  4.380000000000E-02  1.890000000000E-01 -2.935000000000E-01
H101  1.328000000000E-01 -3.270000000000E-01 -2.560000000000E-02
H102 -1.328000000000E-01 -1.730000000000E-01  4.744000000000E-01
H103  1.328000000000E-01  3.270000000000E-01  2.560000000000E-02
H104 -1.328000000000E-01  1.730000000000E-01 -4.744000000000E-01
H105 -1.328000000000E-01  3.270000000000E-01  2.560000000000E-02
H106  1.328000000000E-01  1.730000000000E-01 -4.744000000000E-01
H107 -1.328000000000E-01 -3.270000000000E-01 -2.560000000000E-02
H108  1.328000000000E-01 -1.730000000000E-01  4.744000000000E-01
H109  2.167000000000E-01 -3.320000000000E-01  2.790000000000E-02
H110 -2.167000000000E-01 -1.680000000000E-01 -4.721000000000E-01
H111  2.167000000000E-01  3.320000000000E-01 -2.790000000000E-02
H112 -2.167000000000E-01  1.680000000000E-01  4.721000000000E-01
H113 -2.167000000000E-01  3.320000000000E-01 -2.790000000000E-02
H114  2.167000000000E-01  1.680000000000E-01  4.721000000000E-01
H115 -2.167000000000E-01 -3.320000000000E-01  2.790000000000E-02
H116  2.167000000000E-01 -1.680000000000E-01 -4.721000000000E-01
H117  2.413000000000E-01 -1.400000000000E-01  1.546000000000E-01
H118 -2.413000000000E-01 -3.600000000000E-01 -3.454000000000E-01
H119  2.413000000000E-01  1.400000000000E-01 -1.546000000000E-01
H120 -2.413000000000E-01  3.600000000000E-01  3.454000000000E-01
H121 -2.413000000000E-01  1.400000000000E-01 -1.546000000000E-01
H122  2.413000000000E-01  3.600000000000E-01  3.454000000000E-01
H123 -2.413000000000E-01 -1.400000000000E-01  1.546000000000E-01
H124  2.413000000000E-01 -3.600000000000E-01 -3.454000000000E-01
H125  1.825000000000E-01  5.400000000000E-02  2.311000000000E-01
H126 -1.825000000000E-01  4.460000000000E-01 -2.689000000000E-01
H127  1.825000000000E-01 -5.400000000000E-02 -2.311000000000E-01
H128 -1.825000000000E-01 -4.460000000000E-01  2.689000000000E-01
H129 -1.825000000000E-01 -5.400000000000E-02 -2.311000000000E-01
H130  1.825000000000E-01 -4.460000000000E-01  2.689000000000E-01
H131 -1.825000000000E-01  5.400000000000E-02  2.311000000000E-01
H132  1.825000000000E-01  4.460000000000E-01 -2.689000000000E-01
H133  9.780000000000E-02  5.400000000000E-02  1.804000000000E-01
H134 -9.780000000000E-02  4.460000000000E-01 -3.196000000000E-01
H135  9.780000000000E-02 -5.400000000000E-02 -1.804000000000E-01
H136 -9.780000000000E-02 -4.460000000000E-01  3.196000000000E-01
H137 -9.780000000000E-02 -5.400000000000E-02 -1.804000000000E-01
H138  9.780000000000E-02 -4.460000000000E-01  3.196000000000E-01
H139 -9.780000000000E-02  5.400000000000E-02  1.804000000000E-01
H140  9.780000000000E-02  4.460000000000E-01 -3.196000000000E-01


#===END

data_OPT_STEP_3

_symmetry_space_group_name_H-M 'P 1'
_cell_length_a     26.78900000
_cell_length_b      7.17000000
_cell_length_c     14.21100000
_cell_angle_alpha   90.000000
_cell_angle_beta   90.000000
_cell_angle_gamma   90.000000

loop_
_atom_site_label
_atom_site_fract_x
_atom_site_fract_y
_atom_site_fract_z
C1  2.738252709227E-02  3.843254090405E-19 -6.473807137211E-21
C2 -2.738252709227E-02  5.000000000000E-01 -5.000000000000E-01
C3 -2.738252709227E-02 -3.426100988854E-19 -6.473807137211E-21
C4  2.738252709227E-02  5.000000000000E-01 -5.000000000000E-01
C5  5.312915731428E-02 -1.440934301597E-01  4.931421448073E-02
C6 -5.312915731428E-02 -3.559065698403E-01 -4.506857855193E-01
C7  5.312915731428E-02  1.440934301597E-01 -4.931421448073E-02
C8 -5.312915731428E-02  3.559065698403E-01  4.506857855193E-01
C9 -5.312915731428E-02  1.440934301597E-01 -4.931421448073E-02
C10  5.312915731428E-02  3.559065698403E-01  4.506857855193E-01
C11 -5.312915731428E-02 -1.440934301597E-01  4.931421448073E-02
C12  5.312915731428E-02 -3.559065698403E-01 -4.506857855193E-01
C13  2.677659056516E-02 -2.952009387486E-01  8.735944315209E-02
C14 -2.677659056516E-02 -2.047990612514E-01 -4.126405568479E-01
C15  2.677659056516E-02  2.952009387486E-01 -8.735944315209E-02
C16 -2.677659056516E-02  2.047990612514E-01  4.126405568479E-01
C17 -2.677659056516E-02  2.952009387486E-01 -8.735944315209E-02
C18  2.677659056516E-02  2.047990612514E-01  4.126405568479E-01
C19 -2.677659056516E-02 -2.952009387486E-01  8.735944315209E-02
C20  2.677659056516E-02 -2.047990612514E-01 -4.126405568479E-01
C21  5.193998540155E-02 -4.475355246019E-01  1.330297368557E-01
C22 -5.193998540155E-02 -5.246447539807E-02 -3.669702631443E-01
C23  5.193998540155E-02  4.475355246019E-01 -1.330297368557E-01
C24 -5.193998540155E-02  5.246447539807E-02  3.669702631443E-01
C25 -5.193998540155E-02  4.475355246019E-01 -1.330297368557E-01
C26  5.193998540155E-02  5.246447539807E-02  3.669702631443E-01
C27 -5.193998540155E-02 -4.475355246019E-01  1.330297368557E-01
C28  5.193998540155E-02 -5.246447539807E-02 -3.669702631443E-01
C29  2.648316204949E-02  4.101781354372E-01  1.739331611811E-01
C30 -2.648316204949E-02  8.982186456277E-02 -3.260668388189E-01
C31  2.648316204949E-02 -4.101781354372E-01 -1.739331611811E-01
C32 -2.648316204949E-02 -8.982186456277E-02  3.260668388189E-01
C33 -2.648316204949E-02 -4.101781354372E-01 -1.739331611811E-01
C34  2.648316204949E-02 -8.982186456277E-02  3.260668388189E-01
C35 -2.648316204949E-02  4.101781354372E-01  1.739331611811E-01
C36  2.648316204949E-02  8.982186456277E-02 -3.260668388189E-01
C37  1.075427884881E-01 -1.345126850907E-01  7.316564350887E-02
C38 -1.075427884881E-01 -3.654873149093E-01 -4.268343564911E-01
C39  1.075427884881E-01  1.345126850907E-01 -7.316564350887E-02
C40 -1.075427884881E-01  3.654873149093E-01  4.268343564911E-01
C41 -1.075427884881E-01  1.345126850907E-01 -7.316564350887E-02
C42  1.075427884881E-01  3.654873149093E-01  4.268343564911E-01
C43 -1.075427884881E-01 -1.345126850907E-01  7.316564350887E-02
C44  1.075427884881E-01 -3.654873149093E-01 -4.268343564911E-01
C45  1.427431273925E-01 -2.492887628630E-01  2.967056518633E-02
C46 -1.427431273925E-01 -2.507112371370E-01 -4.703294348137E-01
C47  1.427431273925E-01  2.492887628630E-01 -2.967056518633E-02
C48 -1.427431273925E-01  2.507112371370E-01  4.703294348137E-01
C49 -1.427431273925E-01  2.492887628630E-01 -2.967056518633E-02
C50  1.427431273925E-01  2.507112371370E-01  4.703294348137E-01
C51 -1.427431273925E-01 -2.492887628630E-01  2.967056518633E-02
C52  1.427431273925E-01 -2.507112371370E-01 -4.703294348137E-01
C53  1.918552149928E-01 -2.518264027077E-01  6.061011889483E-02
C54 -1.918552149928E-01 -2.481735972923E-01 -4.393898811052E-01
C55  1.918552149928E-01  2.518264027077E-01 -6.061011889483E-02
C56 -1.918552149928E-01  2.481735972923E-01  4.393898811052E-01
C57 -1.918552149928E-01  2.518264027077E-01 -6.061011889483E-02
C58  1.918552149928E-01  2.481735972923E-01  4.393898811052E-01
C59 -1.918552149928E-01 -2.518264027077E-01  6.061011889483E-02
C60  1.918552149928E-01 -2.481735972923E-01 -4.393898811052E-01
C61  2.068027424088E-01 -1.396263717715E-01  1.352785026681E-01
C62 -2.068027424088E-01 -3.603736282285E-01 -3.647214973319E-01
C63  2.068027424088E-01  1.396263717715E-01 -1.352785026681E-01
C64 -2.068027424088E-01  3.603736282285E-01  3.647214973319E-01
C65 -2.068027424088E-01  1.396263717715E-01 -1.352785026681E-01
C66  2.068027424088E-01  3.603736282285E-01  3.647214973319E-01
C67 -2.068027424088E-01 -1.396263717715E-01  1.352785026681E-01
C68  2.068027424088E-01 -3.603736282285E-01 -3.647214973319E-01
C69  1.721819166946E-01 -2.453194448707E-02  1.788939972580E-01
C70 -1.721819166946E-01 -4.754680555129E-01 -3.211060027420E-01
C71  1.721819166946E-01  2.453194448707E-02 -1.788939972580E-01
C72 -1.721819166946E-01  4.754680555129E-01  3.211060027420E-01
C73 -1.721819166946E-01  2.453194448707E-02 -1.788939972580E-01
C74  1.721819166946E-01  4.754680555129E-01  3.211060027420E-01
C75 -1.721819166946E-01 -2.453194448707E-02  1.788939972580E-01
C76  1.721819166946E-01 -4.754680555129E-01 -3.211060027420E-01
C77  1.229519371739E-01 -2.345629336700E-02  1.485299435278E-01
C78 -1.229519371739E-01 -4.765437066330E-01 -3.514700564722E-01
C79  1.229519371739E-01  2.345629336700E-02 -1.485299435278E-01
C80 -1.229519371739E-01  4.765437066330E-01  3.514700564722E-01
C81 -1.229519371739E-01  2.345629336700E-02 -1.485299435278E-01
C82  1.229519371739E-01  4.765437066330E-01  3.514700564722E-01
C83 -1.229519371739E-01 -2.345629336700E-02  1.485299435278E-01
C84  1.229519371739E-01 -4.765437066330E-01 -3.514700564722E-01
H85  8.925458539571E-02 -4.460443889743E-01  1.353036897358E-01
H86 -8.925458539571E-02 -5.395561102571E-02 -3.646963102642E-01
H87  8.925458539571E-02  4.460443889743E-01 -1.353036897358E-01
H88 -8.925458539571E-02  5.395561102571E-02  3.646963102642E-01
H89 -8.925458539571E-02  4.460443889743E-01 -1.353036897358E-01
H90  8.925458539571E-02  5.395561102571E-02  3.646963102642E-01
H91 -8.925458539571E-02 -4.460443889743E-01  1.353036897358E-01
H92  8.925458539571E-02 -5.395561102571E-02 -3.646963102642E-01
H93  4.440824622479E-02  3.066481949301E-01  2.052064070360E-01
H94 -4.440824622479E-02  1.933518050699E-01 -2.947935929640E-01
H95  4.440824622479E-02 -3.066481949301E-01 -2.052064070360E-01
H96 -4.440824622479E-02 -1.933518050699E-01  2.947935929640E-01
H97 -4.440824622479E-02 -3.066481949301E-01 -2.052064070360E-01
H98  4.440824622479E-02 -1.933518050699E-01  2.947935929640E-01
H99 -4.440824622479E-02  3.066481949301E-01  2.052064070360E-01
H100  4.440824622479E-02  1.933518050699E-01 -2.947935929640E-01
H101  1.322744062840E-01 -3.309426082437E-01 -2.539176837660E-02
H102 -1.322744062840E-01 -1.690573917563E-01  4.746082316234E-01
H103  1.322744062840E-01  3.309426082437E-01  2.539176837660E-02
H104 -1.322744062840E-01  1.690573917563E-01 -4.746082316234E-01
H105 -1.322744062840E-01  3.309426082437E-01  2.539176837660E-02
H106  1.322744062840E-01  1.690573917563E-01 -4.746082316234E-01
H107 -1.322744062840E-01 -3.309426082437E-01 -2.539176837660E-02
H108  1.322744062840E-01 -1.690573917563E-01  4.746082316234E-01
H109  2.172009371513E-01 -3.336936476077E-01  2.762271690373E-02
H110 -2.172009371513E-01 -1.663063523923E-01 -4.723772830963E-01
H111  2.172009371513E-01  3.336936476077E-01 -2.762271690373E-02
H112 -2.172009371513E-01  1.663063523923E-01  4.723772830963E-01
H113 -2.172009371513E-01  3.336936476077E-01 -2.762271690373E-02
H114  2.172009371513E-01  1.663063523923E-01  4.723772830963E-01
H115 -2.172009371513E-01 -3.336936476077E-01  2.762271690373E-02
H116  2.172009371513E-01 -1.663063523923E-01 -4.723772830963E-01
H117  2.421074019883E-01 -1.426807465794E-01  1.568647185228E-01
H118 -2.421074019883E-01 -3.573192534206E-01 -3.431352814772E-01
H119  2.421074019883E-01  1.426807465794E-01 -1.568647185228E-01
H120 -2.421074019883E-01  3.573192534206E-01  3.431352814772E-01
H121 -2.421074019883E-01  1.426807465794E-01 -1.568647185228E-01
H122  2.421074019883E-01  3.573192534206E-01  3.431352814772E-01
H123 -2.421074019883E-01 -1.426807465794E-01  1.568647185228E-01
H124  2.421074019883E-01 -3.573192534206E-01 -3.431352814772E-01
H125  1.827071786418E-01  5.724653768899E-02  2.326154182691E-01
H126 -1.827071786418E-01  4.427534623110E-01 -2.673845817309E-01
H127  1.827071786418E-01 -5.724653768899E-02 -2.326154182691E-01
H128 -1.827071786418E-01 -4.427534623110E-01  2.673845817309E-01
H129 -1.827071786418E-01 -5.724653768899E-02 -2.326154182691E-01
H130  1.827071786418E-01 -4.427534623110E-01  2.673845817309E-01
H131 -1.827071786418E-01  5.724653768899E-02  2.326154182691E-01
H132  1.827071786418E-01  4.427534623110E-01 -2.673845817309E-01
H133  9.725725975875E-02  5.584265061836E-02  1.818085511175E-01
H134 -9.725725975875E-02  4.441573493816E-01 -3.181914488825E-01
H135  9.725725975875E-02 -5.584265061836E-02 -1.818085511175E-01
H136 -9.725725975875E-02 -4.441573493816E-01  3.181914488825E-01
H137 -9.725725975875E-02 -5.584265061836E-02 -1.818085511175E-01
H138  9.725725975875E-02 -4.441573493816E-01  3.181914488825E-01
H139 -9.725725975875E-02  5.584265061836E-02  1.818085511175E-01
H140  9.725725975875E-02  4.441573493816E-01 -3.181914488825E-01


#===END

data_OPT_STEP_4

_symmetry_space_group_name_H-M 'P 1'
_cell_length_a     26.78900000
_cell_length_b      7.17000000
_cell_length_c     14.21100000
_cell_angle_alpha   90.000000
_cell_angle_beta   90.000000
_cell_angle_gamma   90.000000

loop_
_atom_site_label
_atom_site_fract_x
_atom_site_fract_y
_atom_site_fract_z
C1  2.735445929729E-02  3.096981468137E-19 -1.333632769398E-20
C2 -2.735445929729E-02  5.000000000000E-01 -5.000000000000E-01
C3 -2.735445929729E-02 -4.135575927323E-19 -1.333632769398E-20
C4  2.735445929729E-02  5.000000000000E-01 -5.000000000000E-01
C5  5.314640635921E-02 -1.429770870672E-01  4.968398164709E-02
C6 -5.314640635921E-02 -3.570229129328E-01 -4.503160183529E-01
C7  5.314640635921E-02  1.429770870672E-01 -4.968398164709E-02
C8 -5.314640635921E-02  3.570229129328E-01  4.503160183529E-01
C9 -5.314640635921E-02  1.429770870672E-01 -4.968398164709E-02
C10  5.314640635921E-02  3.570229129328E-01  4.503160183529E-01
C11 -5.314640635921E-02 -1.429770870672E-01  4.968398164709E-02
C12  5.314640635921E-02 -3.570229129328E-01 -4.503160183529E-01
C13  2.679260468859E-02 -2.924282733146E-01  8.938885268557E-02
C14 -2.679260468859E-02 -2.075717266854E-01 -4.106111473144E-01
C15  2.679260468859E-02  2.924282733146E-01 -8.938885268557E-02
C16 -2.679260468859E-02  2.075717266854E-01  4.106111473144E-01
C17 -2.679260468859E-02  2.924282733146E-01 -8.938885268557E-02
C18  2.679260468859E-02  2.075717266854E-01  4.106111473144E-01
C19 -2.679260468859E-02 -2.924282733146E-01  8.938885268557E-02
C20  2.679260468859E-02 -2.075717266854E-01 -4.106111473144E-01
C21  5.190189922982E-02 -4.433559260749E-01  1.360993603411E-01
C22 -5.190189922982E-02 -5.664407392512E-02 -3.639006396589E-01
C23  5.190189922982E-02  4.433559260749E-01 -1.360993603411E-01
C24 -5.190189922982E-02  5.664407392512E-02  3.639006396589E-01
C25 -5.190189922982E-02  4.433559260749E-01 -1.360993603411E-01
C26  5.190189922982E-02  5.664407392512E-02  3.639006396589E-01
C27 -5.190189922982E-02 -4.433559260749E-01  1.360993603411E-01
C28  5.190189922982E-02 -5.664407392512E-02 -3.639006396589E-01
C29  2.647475916918E-02  4.109165192849E-01  1.740947435372E-01
C30 -2.647475916918E-02  8.908348071510E-02 -3.259052564628E-01
C31  2.647475916918E-02 -4.109165192849E-01 -1.740947435372E-01
C32 -2.647475916918E-02 -8.908348071510E-02  3.259052564628E-01
C33 -2.647475916918E-02 -4.109165192849E-01 -1.740947435372E-01
C34  2.647475916918E-02 -8.908348071510E-02  3.259052564628E-01
C35 -2.647475916918E-02  4.109165192849E-01  1.740947435372E-01
C36  2.647475916918E-02  8.908348071510E-02 -3.259052564628E-01
C37  1.076009661801E-01 -1.322314790913E-01  7.278774560065E-02
C38 -1.076009661801E-01 -3.677685209087E-01 -4.272122543994E-01
C39  1.076009661801E-01  1.322314790913E-01 -7.278774560065E-02
C40 -1.076009661801E-01  3.677685209087E-01  4.272122543994E-01
C41 -1.076009661801E-01  1.322314790913E-01 -7.278774560065E-02
C42  1.076009661801E-01  3.677685209087E-01  4.272122543994E-01
C43 -1.076009661801E-01 -1.322314790913E-01  7.278774560065E-02
C44  1.076009661801E-01 -3.677685209087E-01 -4.272122543994E-01
C45  1.430966194779E-01 -2.418553647554E-01  2.686667296626E-02
C46 -1.430966194779E-01 -2.581446352446E-01 -4.731333270337E-01
C47  1.430966194779E-01  2.418553647554E-01 -2.686667296626E-02
C48 -1.430966194779E-01  2.581446352446E-01  4.731333270337E-01
C49 -1.430966194779E-01  2.418553647554E-01 -2.686667296626E-02
C50  1.430966194779E-01  2.581446352446E-01  4.731333270337E-01
C51 -1.430966194779E-01 -2.418553647554E-01  2.686667296626E-02
C52  1.430966194779E-01 -2.581446352446E-01 -4.731333270337E-01
C53  1.918674095397E-01 -2.491264096892E-01  5.957783214836E-02
C54 -1.918674095397E-01 -2.508735903108E-01 -4.404221678516E-01
C55  1.918674095397E-01  2.491264096892E-01 -5.957783214836E-02
C56 -1.918674095397E-01  2.508735903108E-01  4.404221678516E-01
C57 -1.918674095397E-01  2.491264096892E-01 -5.957783214836E-02
C58  1.918674095397E-01  2.508735903108E-01  4.404221678516E-01
C59 -1.918674095397E-01 -2.491264096892E-01  5.957783214836E-02
C60  1.918674095397E-01 -2.508735903108E-01 -4.404221678516E-01
C61  2.068301203812E-01 -1.390967274869E-01  1.350841428641E-01
C62 -2.068301203812E-01 -3.609032725131E-01 -3.649158571359E-01
C63  2.068301203812E-01  1.390967274869E-01 -1.350841428641E-01
C64 -2.068301203812E-01  3.609032725131E-01  3.649158571359E-01
C65 -2.068301203812E-01  1.390967274869E-01 -1.350841428641E-01
C66  2.068301203812E-01  3.609032725131E-01  3.649158571359E-01
C67 -2.068301203812E-01 -1.390967274869E-01  1.350841428641E-01
C68  2.068301203812E-01 -3.609032725131E-01 -3.649158571359E-01
C69  1.721012850902E-01 -2.606447595172E-02  1.798404253731E-01
C70 -1.721012850902E-01 -4.739355240483E-01 -3.201595746269E-01
C71  1.721012850902E-01  2.606447595172E-02 -1.798404253731E-01
C72 -1.721012850902E-01  4.739355240483E-01  3.201595746269E-01
C73 -1.721012850902E-01  2.606447595172E-02 -1.798404253731E-01
C74  1.721012850902E-01  4.739355240483E-01  3.201595746269E-01
C75 -1.721012850902E-01 -2.606447595172E-02  1.798404253731E-01
C76  1.721012850902E-01 -4.739355240483E-01 -3.201595746269E-01
C77  1.232074101317E-01 -2.000016769871E-02  1.474875087859E-01
C78 -1.232074101317E-01 -4.799998323013E-01 -3.525124912141E-01
C79  1.232074101317E-01  2.000016769871E-02 -1.474875087859E-01
C80 -1.232074101317E-01  4.799998323013E-01  3.525124912141E-01
C81 -1.232074101317E-01  2.000016769871E-02 -1.474875087859E-01
C82  1.232074101317E-01  4.799998323013E-01  3.525124912141E-01
C83 -1.232074101317E-01 -2.000016769871E-02  1.474875087859E-01
C84  1.232074101317E-01 -4.799998323013E-01 -3.525124912141E-01
H85  8.985330518396E-02 -4.418101787172E-01  1.383962578365E-01
H86 -8.985330518396E-02 -5.818982128283E-02 -3.616037421635E-01
H87  8.985330518396E-02  4.418101787172E-01 -1.383962578365E-01
H88 -8.985330518396E-02  5.818982128283E-02  3.616037421635E-01
H89 -8.985330518396E-02  4.418101787172E-01 -1.383962578365E-01
H90  8.985330518396E-02  5.818982128283E-02  3.616037421635E-01
H91 -8.985330518396E-02 -4.418101787172E-01  1.383962578365E-01
H92  8.985330518396E-02 -5.818982128283E-02 -3.616037421635E-01
H93  4.483743133004E-02  2.998371371382E-01  2.012940804638E-01
H94 -4.483743133004E-02  2.001628628618E-01 -2.987059195362E-01
H95  4.483743133004E-02 -2.998371371382E-01 -2.012940804638E-01
H96 -4.483743133004E-02 -2.001628628618E-01  2.987059195362E-01
H97 -4.483743133004E-02 -2.998371371382E-01 -2.012940804638E-01
H98  4.483743133004E-02 -2.001628628618E-01  2.987059195362E-01
H99 -4.483743133004E-02  2.998371371382E-01  2.012940804638E-01
H100  4.483743133004E-02  2.001628628618E-01 -2.987059195362E-01
H101  1.325190873714E-01 -3.223925125444E-01 -2.989715787336E-02
H102 -1.325190873714E-01 -1.776074874556E-01  4.701028421266E-01
H103  1.325190873714E-01  3.223925125444E-01  2.989715787336E-02
H104 -1.325190873714E-01  1.776074874556E-01 -4.701028421266E-01
H105 -1.325190873714E-01  3.223925125444E-01  2.989715787336E-02
H106  1.325190873714E-01  1.776074874556E-01 -4.701028421266E-01
H107 -1.325190873714E-01 -3.223925125444E-01 -2.989715787336E-02
H108  1.325190873714E-01 -1.776074874556E-01  4.701028421266E-01
H109  2.174869059208E-01 -3.333447489676E-01  2.655727986862E-02
H110 -2.174869059208E-01 -1.666552510324E-01 -4.734427201314E-01
H111  2.174869059208E-01  3.333447489676E-01 -2.655727986862E-02
H112 -2.174869059208E-01  1.666552510324E-01  4.734427201314E-01
H113 -2.174869059208E-01  3.333447489676E-01 -2.655727986862E-02
H114  2.174869059208E-01  1.666552510324E-01  4.734427201314E-01
H115 -2.174869059208E-01 -3.333447489676E-01  2.655727986862E-02
H116  2.174869059208E-01 -1.666552510324E-01 -4.734427201314E-01
H117  2.424335206295E-01 -1.476159167975E-01  1.592770570439E-01
H118 -2.424335206295E-01 -3.523840832025E-01 -3.407229429561E-01
H119  2.424335206295E-01  1.476159167975E-01 -1.592770570439E-01
H120 -2.424335206295E-01  3.523840832025E-01  3.407229429561E-01
H121 -2.424335206295E-01  1.476159167975E-01 -1.592770570439E-01
H122  2.424335206295E-01  3.523840832025E-01  3.407229429561E-01
H123 -2.424335206295E-01 -1.476159167975E-01  1.592770570439E-01
H124  2.424335206295E-01 -3.523840832025E-01 -3.407229429561E-01
H125  1.825515889455E-01  5.440319836032E-02  2.357519758761E-01
H126 -1.825515889455E-01  4.455968016397E-01 -2.642480241239E-01
H127  1.825515889455E-01 -5.440319836032E-02 -2.357519758761E-01
H128 -1.825515889455E-01 -4.455968016397E-01  2.642480241239E-01
H129 -1.825515889455E-01 -5.440319836032E-02 -2.357519758761E-01
H130  1.825515889455E-01 -4.455968016397E-01  2.642480241239E-01
H131 -1.825515889455E-01  5.440319836032E-02  2.357519758761E-01
H132  1.825515889455E-01  4.455968016397E-01 -2.642480241239E-01
H133  9.740685198039E-02  6.242407057450E-02  1.809378817776E-01
H134 -9.740685198039E-02  4.375759294255E-01 -3.190621182224E-01
H135  9.740685198039E-02 -6.242407057450E-02 -1.809378817776E-01
H136 -9.740685198039E-02 -4.375759294255E-01  3.190621182224E-01
H137 -9.740685198039E-02 -6.242407057450E-02 -1.809378817776E-01
H138  9.740685198039E-02 -4.375759294255E-01  3.190621182224E-01
H139 -9.740685198039E-02  6.242407057450E-02  1.809378817776E-01
H140  9.740685198039E-02  4.375759294255E-01 -3.190621182224E-01


#===END

data_OPT_STEP_5

_symmetry_space_group_name_H-M 'P 1'
_cell_length_a     26.78900000
_cell_length_b      7.17000000
_cell_length_c     14.21100000
_cell_angle_alpha   90.000000
_cell_angle_beta   90.000000
_cell_angle_gamma   90.000000

loop_
_atom_site_label
_atom_site_fract_x
_atom_site_fract_y
_atom_site_fract_z
C1  2.740803350279E-02  4.859900927265E-19 -4.324025200433E-20
C2 -2.740803350279E-02  5.000000000000E-01 -5.000000000000E-01
C3 -2.740803350279E-02 -2.442893787351E-19 -4.324025200433E-20
C4  2.740803350279E-02  5.000000000000E-01 -5.000000000000E-01
C5  5.317001762789E-02 -1.400824474849E-01  5.163729559705E-02
C6 -5.317001762789E-02 -3.599175525151E-01 -4.483627044029E-01
C7  5.317001762789E-02  1.400824474849E-01 -5.163729559705E-02
C8 -5.317001762789E-02  3.599175525151E-01  4.483627044029E-01
C9 -5.317001762789E-02  1.400824474849E-01 -5.163729559705E-02
C10  5.317001762789E-02  3.599175525151E-01  4.483627044029E-01
C11 -5.317001762789E-02 -1.400824474849E-01  5.163729559705E-02
C12  5.317001762789E-02 -3.599175525151E-01 -4.483627044029E-01
C13  2.681610125514E-02 -2.881000461942E-01  9.239359719935E-02
C14 -2.681610125514E-02 -2.118999538058E-01 -4.076064028007E-01
C15  2.681610125514E-02  2.881000461942E-01 -9.239359719935E-02
C16 -2.681610125514E-02  2.118999538058E-01  4.076064028007E-01
C17 -2.681610125514E-02  2.881000461942E-01 -9.239359719935E-02
C18  2.681610125514E-02  2.118999538058E-01  4.076064028007E-01
C19 -2.681610125514E-02 -2.881000461942E-01  9.239359719935E-02
C20  2.681610125514E-02 -2.118999538058E-01 -4.076064028007E-01
C21  5.194084077136E-02 -4.441364790450E-01  1.343499945950E-01
C22 -5.194084077136E-02 -5.586352095504E-02 -3.656500054050E-01
C23  5.194084077136E-02  4.441364790450E-01 -1.343499945950E-01
C24 -5.194084077136E-02  5.586352095504E-02  3.656500054050E-01
C25 -5.194084077136E-02  4.441364790450E-01 -1.343499945950E-01
C26  5.194084077136E-02  5.586352095504E-02  3.656500054050E-01
C27 -5.194084077136E-02 -4.441364790450E-01  1.343499945950E-01
C28  5.194084077136E-02 -5.586352095504E-02 -3.656500054050E-01
C29  2.644833662106E-02  4.110790383819E-01  1.728712669962E-01
C30 -2.644833662106E-02  8.892096161813E-02 -3.271287330038E-01
C31  2.644833662106E-02 -4.110790383819E-01 -1.728712669962E-01
C32 -2.644833662106E-02 -8.892096161813E-02  3.271287330038E-01
C33 -2.644833662106E-02 -4.110790383819E-01 -1.728712669962E-01
C34  2.644833662106E-02 -8.892096161813E-02  3.271287330038E-01
C35 -2.644833662106E-02  4.110790383819E-01  1.728712669962E-01
C36  2.644833662106E-02  8.892096161813E-02 -3.271287330038E-01
C37  1.077118647202E-01 -1.312187575129E-01  7.400503711409E-02
C38 -1.077118647202E-01 -3.687812424871E-01 -4.259949628859E-01
C39  1.077118647202E-01  1.312187575129E-01 -7.400503711409E-02
C40 -1.077118647202E-01  3.687812424871E-01  4.259949628859E-01
C41 -1.077118647202E-01  1.312187575129E-01 -7.400503711409E-02
C42  1.077118647202E-01  3.687812424871E-01  4.259949628859E-01
C43 -1.077118647202E-01 -1.312187575129E-01  7.400503711409E-02
C44  1.077118647202E-01 -3.687812424871E-01 -4.259949628859E-01
C45  1.420821138354E-01 -2.528869774457E-01  3.283853060053E-02
C46 -1.420821138354E-01 -2.471130225543E-01 -4.671614693995E-01
C47  1.420821138354E-01  2.528869774457E-01 -3.283853060053E-02
C48 -1.420821138354E-01  2.471130225543E-01  4.671614693995E-01
C49 -1.420821138354E-01  2.528869774457E-01 -3.283853060053E-02
C50  1.420821138354E-01  2.471130225543E-01  4.671614693995E-01
C51 -1.420821138354E-01 -2.528869774457E-01  3.283853060053E-02
C52  1.420821138354E-01 -2.471130225543E-01 -4.671614693995E-01
C53  1.919872920267E-01 -2.481548644176E-01  5.937236306046E-02
C54 -1.919872920267E-01 -2.518451355824E-01 -4.406276369395E-01
C55  1.919872920267E-01  2.481548644176E-01 -5.937236306046E-02
C56 -1.919872920267E-01  2.518451355824E-01  4.406276369395E-01
C57 -1.919872920267E-01  2.481548644176E-01 -5.937236306046E-02
C58  1.919872920267E-01  2.518451355824E-01  4.406276369395E-01
C59 -1.919872920267E-01 -2.481548644176E-01  5.937236306046E-02
C60  1.919872920267E-01 -2.518451355824E-01 -4.406276369395E-01
C61  2.068479218858E-01 -1.446985288767E-01  1.374882824300E-01
C62 -2.068479218858E-01 -3.553014711233E-01 -3.625117175700E-01
C63  2.068479218858E-01  1.446985288767E-01 -1.374882824300E-01
C64 -2.068479218858E-01  3.553014711233E-01  3.625117175700E-01
C65 -2.068479218858E-01  1.446985288767E-01 -1.374882824300E-01
C66  2.068479218858E-01  3.553014711233E-01  3.625117175700E-01
C67 -2.068479218858E-01 -1.446985288767E-01  1.374882824300E-01
C68  2.068479218858E-01 -3.553014711233E-01 -3.625117175700E-01
C69  1.728992293062E-01 -2.352257742009E-02  1.792696372715E-01
C70 -1.728992293062E-01 -4.764774225799E-01 -3.207303627285E-01
C71  1.728992293062E-01  2.352257742009E-02 -1.792696372715E-01
C72 -1.728992293062E-01  4.764774225799E-01  3.207303627285E-01
C73 -1.728992293062E-01  2.352257742009E-02 -1.792696372715E-01
C74  1.728992293062E-01  4.764774225799E-01  3.207303627285E-01
C75 -1.728992293062E-01 -2.352257742009E-02  1.792696372715E-01
C76  1.728992293062E-01 -4.764774225799E-01 -3.207303627285E-01
C77  1.231211849896E-01 -2.731841568422E-02  1.517963530305E-01
C78 -1.231211849896E-01 -4.726815843158E-01 -3.482036469695E-01
C79  1.231211849896E-01  2.731841568422E-02 -1.517963530305E-01
C80 -1.231211849896E-01  4.726815843158E-01  3.482036469695E-01
C81 -1.231211849896E-01  2.731841568422E-02 -1.517963530305E-01
C82  1.231211849896E-01  4.726815843158E-01  3.482036469695E-01
C83 -1.231211849896E-01 -2.731841568422E-02  1.517963530305E-01
C84  1.231211849896E-01 -4.726815843158E-01 -3.482036469695E-01
H85  9.129414771659E-02 -4.437943128166E-01  1.364542665484E-01
H86 -9.129414771659E-02 -5.620568718338E-02 -3.635457334516E-01
H87  9.129414771659E-02  4.437943128166E-01 -1.364542665484E-01
H88 -9.129414771659E-02  5.620568718338E-02  3.635457334516E-01
H89 -9.129414771659E-02  4.437943128166E-01 -1.364542665484E-01
H90  9.129414771659E-02  5.620568718338E-02  3.635457334516E-01
H91 -9.129414771659E-02 -4.437943128166E-01  1.364542665484E-01
H92  9.129414771659E-02 -5.620568718338E-02 -3.635457334516E-01
H93  4.568190252091E-02  2.850588815377E-01  1.919057012825E-01
H94 -4.568190252091E-02  2.149411184623E-01 -3.080942987175E-01
H95  4.568190252091E-02 -2.850588815377E-01 -1.919057012825E-01
H96 -4.568190252091E-02 -2.149411184623E-01  3.080942987175E-01
H97 -4.568190252091E-02 -2.850588815377E-01 -1.919057012825E-01
H98  4.568190252091E-02 -2.149411184623E-01  3.080942987175E-01
H99 -4.568190252091E-02  2.850588815377E-01  1.919057012825E-01
H100  4.568190252091E-02  2.149411184623E-01 -3.080942987175E-01
H101  1.305761524009E-01 -3.391697763129E-01 -2.412367555662E-02
H102 -1.305761524009E-01 -1.608302236871E-01  4.758763244434E-01
H103  1.305761524009E-01  3.391697763129E-01  2.412367555662E-02
H104 -1.305761524009E-01  1.608302236871E-01 -4.758763244434E-01
H105 -1.305761524009E-01  3.391697763129E-01  2.412367555662E-02
H106  1.305761524009E-01  1.608302236871E-01 -4.758763244434E-01
H107 -1.305761524009E-01 -3.391697763129E-01 -2.412367555662E-02
H108  1.305761524009E-01 -1.608302236871E-01  4.758763244434E-01
H109  2.183404599157E-01 -3.351512871370E-01  2.497038006100E-02
H110 -2.183404599157E-01 -1.648487128630E-01 -4.750296199390E-01
H111  2.183404599157E-01  3.351512871370E-01 -2.497038006100E-02
H112 -2.183404599157E-01  1.648487128630E-01  4.750296199390E-01
H113 -2.183404599157E-01  3.351512871370E-01 -2.497038006100E-02
H114  2.183404599157E-01  1.648487128630E-01  4.750296199390E-01
H115 -2.183404599157E-01 -3.351512871370E-01  2.497038006100E-02
H116  2.183404599157E-01 -1.648487128630E-01 -4.750296199390E-01
H117  2.427137303356E-01 -1.696683092850E-01  1.690552496104E-01
H118 -2.427137303356E-01 -3.303316907150E-01 -3.309447503896E-01
H119  2.427137303356E-01  1.696683092850E-01 -1.690552496104E-01
H120 -2.427137303356E-01  3.303316907150E-01  3.309447503896E-01
H121 -2.427137303356E-01  1.696683092850E-01 -1.690552496104E-01
H122  2.427137303356E-01  3.303316907150E-01  3.309447503896E-01
H123 -2.427137303356E-01 -1.696683092850E-01  1.690552496104E-01
H124  2.427137303356E-01 -3.303316907150E-01 -3.309447503896E-01
H125  1.834860911439E-01  5.791919085291E-02  2.381994437413E-01
H126 -1.834860911439E-01  4.420808091471E-01 -2.618005562587E-01
H127  1.834860911439E-01 -5.791919085291E-02 -2.381994437413E-01
H128 -1.834860911439E-01 -4.420808091471E-01  2.618005562587E-01
H129 -1.834860911439E-01 -5.791919085291E-02 -2.381994437413E-01
H130  1.834860911439E-01 -4.420808091471E-01  2.618005562587E-01
H131 -1.834860911439E-01  5.791919085291E-02  2.381994437413E-01
H132  1.834860911439E-01  4.420808091471E-01 -2.618005562587E-01
H133  9.697502268016E-02  6.018495514589E-02  1.863736975223E-01
H134 -9.697502268016E-02  4.398150448541E-01 -3.136263024777E-01
H135  9.697502268016E-02 -6.018495514589E-02 -1.863736975223E-01
H136 -9.697502268016E-02 -4.398150448541E-01  3.136263024777E-01
H137 -9.697502268016E-02 -6.018495514589E-02 -1.863736975223E-01
H138  9.697502268016E-02 -4.398150448541E-01  3.136263024777E-01
H139 -9.697502268016E-02  6.018495514589E-02  1.863736975223E-01
H140  9.697502268016E-02  4.398150448541E-01 -3.136263024777E-01


#===END

data_OPT_STEP_6

_symmetry_space_group_name_H-M 'P 1'
_cell_length_a     26.78900000
_cell_length_b      7.17000000
_cell_length_c     14.21100000
_cell_angle_alpha   90.000000
_cell_angle_beta   90.000000
_cell_angle_gamma   90.000000

loop_
_atom_site_label
_atom_site_fract_x
_atom_site_fract_y
_atom_site_fract_z
C1  2.748709114513E-02  6.056436260955E-19 -5.520057520548E-20
C2 -2.748709114513E-02  5.000000000000E-01 -5.000000000000E-01
C3 -2.748709114513E-02 -1.350005288995E-19 -5.520057520548E-20
C4  2.748709114513E-02  5.000000000000E-01 -5.000000000000E-01
C5  5.315631414583E-02 -1.377866126911E-01  5.374095242248E-02
C6 -5.315631414583E-02 -3.622133873089E-01 -4.462590475775E-01
C7  5.315631414583E-02  1.377866126911E-01 -5.374095242248E-02
C8 -5.315631414583E-02  3.622133873089E-01  4.462590475775E-01
C9 -5.315631414583E-02  1.377866126911E-01 -5.374095242248E-02
C10  5.315631414583E-02  3.622133873089E-01  4.462590475775E-01
C11 -5.315631414583E-02 -1.377866126911E-01  5.374095242248E-02
C12  5.315631414583E-02 -3.622133873089E-01 -4.462590475775E-01
C13  2.684205959891E-02 -2.878304170510E-01  9.230851467953E-02
C14 -2.684205959891E-02 -2.121695829490E-01 -4.076914853205E-01
C15  2.684205959891E-02  2.878304170510E-01 -9.230851467953E-02
C16 -2.684205959891E-02  2.121695829490E-01  4.076914853205E-01
C17 -2.684205959891E-02  2.878304170510E-01 -9.230851467953E-02
C18  2.684205959891E-02  2.121695829490E-01  4.076914853205E-01
C19 -2.684205959891E-02 -2.878304170510E-01  9.230851467953E-02
C20  2.684205959891E-02 -2.121695829490E-01 -4.076914853205E-01
C21  5.201474219335E-02 -4.495961410371E-01  1.291773503391E-01
C22 -5.201474219335E-02 -5.040385896292E-02 -3.708226496609E-01
C23  5.201474219335E-02  4.495961410371E-01 -1.291773503391E-01
C24 -5.201474219335E-02  5.040385896292E-02  3.708226496609E-01
C25 -5.201474219335E-02  4.495961410371E-01 -1.291773503391E-01
C26  5.201474219335E-02  5.040385896292E-02  3.708226496609E-01
C27 -5.201474219335E-02 -4.495961410371E-01  1.291773503391E-01
C28  5.201474219335E-02 -5.040385896292E-02 -3.708226496609E-01
C29  2.644507783764E-02  4.047982267862E-01  1.666837401069E-01
C30 -2.644507783764E-02  9.520177321385E-02 -3.333162598931E-01
C31  2.644507783764E-02 -4.047982267862E-01 -1.666837401069E-01
C32 -2.644507783764E-02 -9.520177321385E-02  3.333162598931E-01
C33 -2.644507783764E-02 -4.047982267862E-01 -1.666837401069E-01
C34  2.644507783764E-02 -9.520177321385E-02  3.333162598931E-01
C35 -2.644507783764E-02  4.047982267862E-01  1.666837401069E-01
C36  2.644507783764E-02  9.520177321385E-02 -3.333162598931E-01
C37  1.078084444696E-01 -1.312193355793E-01  7.624068771659E-02
C38 -1.078084444696E-01 -3.687806644207E-01 -4.237593122834E-01
C39  1.078084444696E-01  1.312193355793E-01 -7.624068771659E-02
C40 -1.078084444696E-01  3.687806644207E-01  4.237593122834E-01
C41 -1.078084444696E-01  1.312193355793E-01 -7.624068771659E-02
C42  1.078084444696E-01  3.687806644207E-01  4.237593122834E-01
C43 -1.078084444696E-01 -1.312193355793E-01  7.624068771659E-02
C44  1.078084444696E-01 -3.687806644207E-01 -4.237593122834E-01
C45  1.421779437518E-01 -2.499363529344E-01  3.291993285407E-02
C46 -1.421779437518E-01 -2.500636470656E-01 -4.670800671459E-01
C47  1.421779437518E-01  2.499363529344E-01 -3.291993285407E-02
C48 -1.421779437518E-01  2.500636470656E-01  4.670800671459E-01
C49 -1.421779437518E-01  2.499363529344E-01 -3.291993285407E-02
C50  1.421779437518E-01  2.500636470656E-01  4.670800671459E-01
C51 -1.421779437518E-01 -2.499363529344E-01  3.291993285407E-02
C52  1.421779437518E-01 -2.500636470656E-01 -4.670800671459E-01
C53  1.917460869384E-01 -2.527682029525E-01  6.124086312931E-02
C54 -1.917460869384E-01 -2.472317970476E-01 -4.387591368707E-01
C55  1.917460869384E-01  2.527682029524E-01 -6.124086312931E-02
C56 -1.917460869384E-01  2.472317970476E-01  4.387591368707E-01
C57 -1.917460869384E-01  2.527682029524E-01 -6.124086312931E-02
C58  1.917460869384E-01  2.472317970476E-01  4.387591368707E-01
C59 -1.917460869384E-01 -2.527682029524E-01  6.124086312931E-02
C60  1.917460869384E-01 -2.472317970476E-01 -4.387591368707E-01
C61  2.072887701701E-01 -1.468716350309E-01  1.379690061631E-01
C62 -2.072887701701E-01 -3.531283649691E-01 -3.620309938369E-01
C63  2.072887701701E-01  1.468716350309E-01 -1.379690061631E-01
C64 -2.072887701701E-01  3.531283649691E-01  3.620309938369E-01
C65 -2.072887701701E-01  1.468716350309E-01 -1.379690061631E-01
C66  2.072887701701E-01  3.531283649691E-01  3.620309938369E-01
C67 -2.072887701701E-01 -1.468716350309E-01  1.379690061631E-01
C68  2.072887701701E-01 -3.531283649691E-01 -3.620309938369E-01
C69  1.728349227608E-01 -3.578912332475E-02  1.851525444340E-01
C70 -1.728349227608E-01 -4.642108766753E-01 -3.148474555660E-01
C71  1.728349227608E-01  3.578912332475E-02 -1.851525444340E-01
C72 -1.728349227608E-01  4.642108766753E-01  3.148474555660E-01
C73 -1.728349227608E-01  3.578912332475E-02 -1.851525444340E-01
C74  1.728349227608E-01  4.642108766753E-01  3.148474555660E-01
C75 -1.728349227608E-01 -3.578912332475E-02  1.851525444340E-01
C76  1.728349227608E-01 -4.642108766753E-01 -3.148474555660E-01
C77  1.233801142678E-01 -3.217076154496E-02  1.557842111395E-01
C78 -1.233801142678E-01 -4.678292384550E-01 -3.442157888605E-01
C79  1.233801142678E-01  3.217076154496E-02 -1.557842111395E-01
C80 -1.233801142678E-01  4.678292384550E-01  3.442157888605E-01
C81 -1.233801142678E-01  3.217076154496E-02 -1.557842111395E-01
C82  1.233801142678E-01  4.678292384550E-01  3.442157888605E-01
C83 -1.233801142678E-01 -3.217076154496E-02  1.557842111395E-01
C84  1.233801142678E-01 -4.678292384550E-01 -3.442157888605E-01
H85  9.200539032536E-02 -4.507659435389E-01  1.308902625541E-01
H86 -9.200539032536E-02 -4.923405646114E-02 -3.691097374459E-01
H87  9.200539032536E-02  4.507659435389E-01 -1.308902625541E-01
H88 -9.200539032536E-02  4.923405646114E-02  3.691097374459E-01
H89 -9.200539032536E-02  4.507659435389E-01 -1.308902625541E-01
H90  9.200539032536E-02  4.923405646114E-02  3.691097374459E-01
H91 -9.200539032536E-02 -4.507659435389E-01  1.308902625541E-01
H92  9.200539032536E-02 -4.923405646114E-02 -3.691097374459E-01
H93  4.580535289925E-02  2.861019346516E-01  1.927498641326E-01
H94 -4.580535289925E-02  2.138980653484E-01 -3.072501358674E-01
H95  4.580535289925E-02 -2.861019346516E-01 -1.927498641326E-01
H96 -4.580535289925E-02 -2.138980653484E-01  3.072501358674E-01
H97 -4.580535289925E-02 -2.861019346516E-01 -1.927498641326E-01
H98  4.580535289925E-02 -2.138980653484E-01  3.072501358674E-01
H99 -4.580535289925E-02  2.861019346516E-01  1.927498641326E-01
H100  4.580535289925E-02  2.138980653484E-01 -3.072501358674E-01
H101  1.308060754379E-01 -3.284874340761E-01 -2.819994662495E-02
H102 -1.308060754379E-01 -1.715125659239E-01  4.718000533750E-01
H103  1.308060754379E-01  3.284874340761E-01  2.819994662495E-02
H104 -1.308060754379E-01  1.715125659239E-01 -4.718000533750E-01
H105 -1.308060754379E-01  3.284874340761E-01  2.819994662495E-02
H106  1.308060754379E-01  1.715125659239E-01 -4.718000533750E-01
H107 -1.308060754379E-01 -3.284874340761E-01 -2.819994662495E-02
H108  1.308060754379E-01 -1.715125659239E-01  4.718000533750E-01
H109  2.184272688986E-01 -3.392129665350E-01  2.497959264048E-02
H110 -2.184272688986E-01 -1.607870334650E-01 -4.750204073595E-01
H111  2.184272688986E-01  3.392129665350E-01 -2.497959264048E-02
H112 -2.184272688986E-01  1.607870334650E-01  4.750204073595E-01
H113 -2.184272688986E-01  3.392129665350E-01 -2.497959264048E-02
H114  2.184272688986E-01  1.607870334650E-01  4.750204073595E-01
H115 -2.184272688986E-01 -3.392129665350E-01  2.497959264048E-02
H116  2.184272688986E-01 -1.607870334650E-01 -4.750204073595E-01
H117  2.450074632848E-01 -1.546485048756E-01  1.611654932723E-01
H118 -2.450074632848E-01 -3.453514951244E-01 -3.388345067277E-01
H119  2.450074632848E-01  1.546485048756E-01 -1.611654932723E-01
H120 -2.450074632848E-01  3.453514951244E-01  3.388345067277E-01
H121 -2.450074632848E-01  1.546485048756E-01 -1.611654932723E-01
H122  2.450074632848E-01  3.453514951244E-01  3.388345067277E-01
H123 -2.450074632848E-01 -1.546485048756E-01  1.611654932723E-01
H124  2.450074632848E-01 -3.453514951244E-01 -3.388345067277E-01
H125  1.831140525204E-01  3.724423192092E-02  2.490140007531E-01
H126 -1.831140525204E-01  4.627557680791E-01 -2.509859992469E-01
H127  1.831140525204E-01 -3.724423192092E-02 -2.490140007531E-01
H128 -1.831140525204E-01 -4.627557680791E-01  2.509859992469E-01
H129 -1.831140525204E-01 -3.724423192092E-02 -2.490140007531E-01
H130  1.831140525204E-01 -4.627557680791E-01  2.509859992469E-01
H131 -1.831140525204E-01  3.724423192092E-02  2.490140007531E-01
H132  1.831140525204E-01  4.627557680791E-01 -2.509859992469E-01
H133  9.715734515809E-02  5.668007912403E-02  1.915785876179E-01
H134 -9.715734515809E-02  4.433199208760E-01 -3.084214123821E-01
H135  9.715734515809E-02 -5.668007912403E-02 -1.915785876179E-01
H136 -9.715734515809E-02 -4.433199208760E-01  3.084214123821E-01
H137 -9.715734515809E-02 -5.668007912403E-02 -1.915785876179E-01
H138  9.715734515809E-02 -4.433199208760E-01  3.084214123821E-01
H139 -9.715734515809E-02  5.668007912403E-02  1.915785876179E-01
H140  9.715734515809E-02  4.433199208760E-01 -3.084214123821E-01


#===END

data_OPT_STEP_7

_symmetry_space_group_name_H-M 'P 1'
_cell_length_a     26.78900000
_cell_length_b      7.17000000
_cell_length_c     14.21100000
_cell_angle_alpha   90.000000
_cell_angle_beta   90.000000
_cell_angle_gamma   90.000000

loop_
_atom_site_label
_atom_site_fract_x
_atom_site_fract_y
_atom_site_fract_z
C1  2.748114151191E-02  7.668407438079E-19 -1.033863425617E-20
C2 -2.748114151191E-02  5.000000000000E-01 -5.000000000000E-01
C3 -2.748114151191E-02  2.697660278263E-20 -1.033863425617E-20
C4  2.748114151191E-02  5.000000000000E-01 -5.000000000000E-01
C5  5.321085599038E-02 -1.432439925424E-01  4.942278428630E-02
C6 -5.321085599038E-02 -3.567560074576E-01 -4.505772157137E-01
C7  5.321085599038E-02  1.432439925424E-01 -4.942278428630E-02
C8 -5.321085599038E-02  3.567560074576E-01  4.505772157137E-01
C9 -5.321085599038E-02  1.432439925424E-01 -4.942278428630E-02
C10  5.321085599038E-02  3.567560074576E-01  4.505772157137E-01
C11 -5.321085599038E-02 -1.432439925424E-01  4.942278428630E-02
C12  5.321085599038E-02 -3.567560074576E-01 -4.505772157137E-01
C13  2.687728637536E-02 -2.945660340739E-01  8.669060551892E-02
C14 -2.687728637536E-02 -2.054339659261E-01 -4.133093944811E-01
C15  2.687728637536E-02  2.945660340739E-01 -8.669060551892E-02
C16 -2.687728637536E-02  2.054339659261E-01  4.133093944811E-01
C17 -2.687728637536E-02  2.945660340739E-01 -8.669060551892E-02
C18  2.687728637536E-02  2.054339659261E-01  4.133093944811E-01
C19 -2.687728637536E-02 -2.945660340739E-01  8.669060551892E-02
C20  2.687728637536E-02 -2.054339659261E-01 -4.133093944811E-01
C21  5.194234482585E-02 -4.470442881768E-01  1.310844195960E-01
C22 -5.194234482585E-02 -5.295571182324E-02 -3.689155804040E-01
C23  5.194234482585E-02  4.470442881768E-01 -1.310844195960E-01
C24 -5.194234482585E-02  5.295571182324E-02  3.689155804040E-01
C25 -5.194234482585E-02  4.470442881768E-01 -1.310844195960E-01
C26  5.194234482585E-02  5.295571182324E-02  3.689155804040E-01
C27 -5.194234482585E-02 -4.470442881768E-01  1.310844195960E-01
C28  5.194234482585E-02 -5.295571182324E-02 -3.689155804040E-01
C29  2.643272153628E-02  4.036954441957E-01  1.653443706401E-01
C30 -2.643272153628E-02  9.630455580435E-02 -3.346556293599E-01
C31  2.643272153628E-02 -4.036954441957E-01 -1.653443706401E-01
C32 -2.643272153628E-02 -9.630455580435E-02  3.346556293599E-01
C33 -2.643272153628E-02 -4.036954441957E-01 -1.653443706401E-01
C34  2.643272153628E-02 -9.630455580435E-02  3.346556293599E-01
C35 -2.643272153628E-02  4.036954441957E-01  1.653443706401E-01
C36  2.643272153628E-02  9.630455580435E-02 -3.346556293599E-01
C37  1.076987252265E-01 -1.375265171153E-01  7.355486238294E-02
C38 -1.076987252265E-01 -3.624734828847E-01 -4.264451376171E-01
C39  1.076987252265E-01  1.375265171153E-01 -7.355486238294E-02
C40 -1.076987252265E-01  3.624734828847E-01  4.264451376171E-01
C41 -1.076987252265E-01  1.375265171153E-01 -7.355486238294E-02
C42  1.076987252265E-01  3.624734828847E-01  4.264451376171E-01
C43 -1.076987252265E-01 -1.375265171153E-01  7.355486238294E-02
C44  1.076987252265E-01 -3.624734828847E-01 -4.264451376171E-01
C45  1.431286138439E-01 -2.441911266363E-01  2.535240960315E-02
C46 -1.431286138439E-01 -2.558088733637E-01 -4.746475903968E-01
C47  1.431286138439E-01  2.441911266363E-01 -2.535240960315E-02
C48 -1.431286138439E-01  2.558088733637E-01  4.746475903968E-01
C49 -1.431286138439E-01  2.441911266363E-01 -2.535240960315E-02
C50  1.431286138439E-01  2.558088733637E-01  4.746475903968E-01
C51 -1.431286138439E-01 -2.441911266363E-01  2.535240960315E-02
C52  1.431286138439E-01 -2.558088733637E-01 -4.746475903968E-01
C53  1.913999988162E-01 -2.619761190588E-01  6.057418715894E-02
C54 -1.913999988162E-01 -2.380238809412E-01 -4.394258128411E-01
C55  1.913999988162E-01  2.619761190588E-01 -6.057418715894E-02
C56 -1.913999988162E-01  2.380238809412E-01  4.394258128411E-01
C57 -1.913999988162E-01  2.619761190588E-01 -6.057418715894E-02
C58  1.913999988162E-01  2.380238809412E-01  4.394258128411E-01
C59 -1.913999988162E-01 -2.619761190588E-01  6.057418715894E-02
C60  1.913999988162E-01 -2.380238809412E-01 -4.394258128411E-01
C61  2.059351031342E-01 -1.659789309940E-01  1.418054840300E-01
C62 -2.059351031342E-01 -3.340210690060E-01 -3.581945159700E-01
C63  2.059351031342E-01  1.659789309940E-01 -1.418054840300E-01
C64 -2.059351031342E-01  3.340210690060E-01  3.581945159700E-01
C65 -2.059351031342E-01  1.659789309940E-01 -1.418054840300E-01
C66  2.059351031342E-01  3.340210690060E-01  3.581945159700E-01
C67 -2.059351031342E-01 -1.659789309940E-01  1.418054840300E-01
C68  2.059351031342E-01 -3.340210690060E-01 -3.581945159700E-01
C69  1.721149308432E-01 -4.519055036539E-02  1.844531536177E-01
C70 -1.721149308432E-01 -4.548094496346E-01 -3.155468463823E-01
C71  1.721149308432E-01  4.519055036539E-02 -1.844531536177E-01
C72 -1.721149308432E-01  4.548094496346E-01  3.155468463823E-01
C73 -1.721149308432E-01  4.519055036539E-02 -1.844531536177E-01
C74  1.721149308432E-01  4.548094496346E-01  3.155468463823E-01
C75 -1.721149308432E-01 -4.519055036539E-02  1.844531536177E-01
C76  1.721149308432E-01 -4.548094496346E-01 -3.155468463823E-01
C77  1.231414299289E-01 -3.585264761728E-02  1.522054652635E-01
C78 -1.231414299289E-01 -4.641473523827E-01 -3.477945347365E-01
C79  1.231414299289E-01  3.585264761728E-02 -1.522054652635E-01
C80 -1.231414299289E-01  4.641473523827E-01  3.477945347365E-01
C81 -1.231414299289E-01  3.585264761728E-02 -1.522054652635E-01
C82  1.231414299289E-01  4.641473523827E-01  3.477945347365E-01
C83 -1.231414299289E-01 -3.585264761728E-02  1.522054652635E-01
C84  1.231414299289E-01 -4.641473523827E-01 -3.477945347365E-01
H85  9.230474339825E-02 -4.482519097414E-01  1.331843368206E-01
H86 -9.230474339825E-02 -5.174809025863E-02 -3.668156631794E-01
H87  9.230474339825E-02  4.482519097414E-01 -1.331843368206E-01
H88 -9.230474339825E-02  5.174809025863E-02  3.668156631794E-01
H89 -9.230474339825E-02  4.482519097414E-01 -1.331843368206E-01
H90  9.230474339825E-02  5.174809025863E-02  3.668156631794E-01
H91 -9.230474339825E-02 -4.482519097414E-01  1.331843368206E-01
H92  9.230474339825E-02 -5.174809025863E-02 -3.668156631794E-01
H93  4.589955965313E-02  2.882248763864E-01  1.946814570727E-01
H94 -4.589955965313E-02  2.117751236136E-01 -3.053185429273E-01
H95  4.589955965313E-02 -2.882248763864E-01 -1.946814570727E-01
H96 -4.589955965313E-02 -2.117751236136E-01  3.053185429273E-01
H97 -4.589955965313E-02 -2.882248763864E-01 -1.946814570727E-01
H98  4.589955965313E-02 -2.117751236136E-01  3.053185429273E-01
H99 -4.589955965313E-02  2.882248763864E-01  1.946814570727E-01
H100  4.589955965313E-02  2.117751236136E-01 -3.053185429273E-01
H101  1.323381185793E-01 -3.164050382169E-01 -3.909402652557E-02
H102 -1.323381185793E-01 -1.835949617831E-01  4.609059734744E-01
H103  1.323381185793E-01  3.164050382169E-01  3.909402652557E-02
H104 -1.323381185793E-01  1.835949617831E-01 -4.609059734744E-01
H105 -1.323381185793E-01  3.164050382169E-01  3.909402652557E-02
H106  1.323381185793E-01  1.835949617831E-01 -4.609059734744E-01
H107 -1.323381185793E-01 -3.164050382169E-01 -3.909402652557E-02
H108  1.323381185793E-01 -1.835949617831E-01  4.609059734744E-01
H109  2.186509186892E-01 -3.452471789626E-01  2.260400239016E-02
H110 -2.186509186892E-01 -1.547528210374E-01 -4.773959976098E-01
H111  2.186509186892E-01  3.452471789626E-01 -2.260400239016E-02
H112 -2.186509186892E-01  1.547528210374E-01  4.773959976098E-01
H113 -2.186509186892E-01  3.452471789626E-01 -2.260400239016E-02
H114  2.186509186892E-01  1.547528210374E-01  4.773959976098E-01
H115 -2.186509186892E-01 -3.452471789626E-01  2.260400239016E-02
H116  2.186509186892E-01 -1.547528210374E-01 -4.773959976098E-01
H117  2.439448051127E-01 -1.738235272042E-01  1.652786332789E-01
H118 -2.439448051127E-01 -3.261764727958E-01 -3.347213667211E-01
H119  2.439448051127E-01  1.738235272042E-01 -1.652786332789E-01
H120 -2.439448051127E-01  3.261764727958E-01  3.347213667211E-01
H121 -2.439448051127E-01  1.738235272042E-01 -1.652786332789E-01
H122  2.439448051127E-01  3.261764727958E-01  3.347213667211E-01
H123 -2.439448051127E-01 -1.738235272042E-01  1.652786332789E-01
H124  2.439448051127E-01 -3.261764727958E-01 -3.347213667211E-01
H125  1.832812667660E-01  4.003590816631E-02  2.436927493994E-01
H126 -1.832812667660E-01  4.599640918337E-01 -2.563072506006E-01
H127  1.832812667660E-01 -4.003590816631E-02 -2.436927493994E-01
H128 -1.832812667660E-01 -4.599640918337E-01  2.563072506006E-01
H129 -1.832812667660E-01 -4.003590816631E-02 -2.436927493994E-01
H130  1.832812667660E-01 -4.599640918337E-01  2.563072506006E-01
H131 -1.832812667660E-01  4.003590816631E-02  2.436927493994E-01
H132  1.832812667660E-01  4.599640918337E-01 -2.563072506006E-01
H133  9.648652157527E-02  5.235064028782E-02  1.884663687539E-01
H134 -9.648652157527E-02  4.476493597122E-01 -3.115336312461E-01
H135  9.648652157527E-02 -5.235064028782E-02 -1.884663687539E-01
H136 -9.648652157527E-02 -4.476493597122E-01  3.115336312461E-01
H137 -9.648652157527E-02 -5.235064028782E-02 -1.884663687539E-01
H138  9.648652157527E-02 -4.476493597122E-01  3.115336312461E-01
H139 -9.648652157527E-02  5.235064028782E-02  1.884663687539E-01
H140  9.648652157527E-02  4.476493597122E-01 -3.115336312461E-01


#===END

data_OPT_STEP_8

_symmetry_space_group_name_H-M 'P 1'
_cell_length_a     26.78900000
_cell_length_b      7.17000000
_cell_length_c     14.21100000
_cell_angle_alpha   90.000000
_cell_angle_beta   90.000000
_cell_angle_gamma   90.000000

loop_
_atom_site_label
_atom_site_fract_x
_atom_site_fract_y
_atom_site_fract_z
C1  2.746206850748E-02  7.506952337187E-19 -1.059639464828E-20
C2 -2.746206850748E-02  5.000000000000E-01 -5.000000000000E-01
C3 -2.746206850748E-02  1.333161824776E-20 -1.059639464828E-20
C4  2.746206850748E-02  5.000000000000E-01 -5.000000000000E-01
C5  5.322648023004E-02 -1.439666803627E-01  4.868556623395E-02
C6 -5.322648023004E-02 -3.560333196373E-01 -4.513144337660E-01
C7  5.322648023004E-02  1.439666803627E-01 -4.868556623395E-02
C8 -5.322648023004E-02  3.560333196373E-01  4.513144337660E-01
C9 -5.322648023004E-02  1.439666803627E-01 -4.868556623395E-02
C10  5.322648023004E-02  3.560333196373E-01  4.513144337660E-01
C11 -5.322648023004E-02 -1.439666803627E-01  4.868556623395E-02
C12  5.322648023004E-02 -3.560333196373E-01 -4.513144337660E-01
C13  2.687602539106E-02 -2.946977170117E-01  8.669922179481E-02
C14 -2.687602539106E-02 -2.053022829883E-01 -4.133007782052E-01
C15  2.687602539106E-02  2.946977170117E-01 -8.669922179481E-02
C16 -2.687602539106E-02  2.053022829883E-01  4.133007782052E-01
C17 -2.687602539106E-02  2.946977170117E-01 -8.669922179481E-02
C18  2.687602539106E-02  2.053022829883E-01  4.133007782052E-01
C19 -2.687602539106E-02 -2.946977170117E-01  8.669922179481E-02
C20  2.687602539106E-02 -2.053022829883E-01 -4.133007782052E-01
C21  5.191361351030E-02 -4.467992702405E-01  1.315215970609E-01
C22 -5.191361351030E-02 -5.320072975945E-02 -3.684784029391E-01
C23  5.191361351030E-02  4.467992702405E-01 -1.315215970609E-01
C24 -5.191361351030E-02  5.320072975945E-02  3.684784029391E-01
C25 -5.191361351030E-02  4.467992702405E-01 -1.315215970609E-01
C26  5.191361351030E-02  5.320072975945E-02  3.684784029391E-01
C27 -5.191361351030E-02 -4.467992702405E-01  1.315215970609E-01
C28  5.191361351030E-02 -5.320072975945E-02 -3.684784029391E-01
C29  2.642844116752E-02  4.052023799425E-01  1.668931780891E-01
C30 -2.642844116752E-02  9.479762005748E-02 -3.331068219109E-01
C31  2.642844116752E-02 -4.052023799425E-01 -1.668931780891E-01
C32 -2.642844116752E-02 -9.479762005748E-02  3.331068219109E-01
C33 -2.642844116752E-02 -4.052023799425E-01 -1.668931780891E-01
C34  2.642844116752E-02 -9.479762005748E-02  3.331068219109E-01
C35 -2.642844116752E-02  4.052023799425E-01  1.668931780891E-01
C36  2.642844116752E-02  9.479762005748E-02 -3.331068219109E-01
C37  1.076627880275E-01 -1.375657231058E-01  7.301929593397E-02
C38 -1.076627880275E-01 -3.624342768942E-01 -4.269807040660E-01
C39  1.076627880275E-01  1.375657231058E-01 -7.301929593397E-02
C40 -1.076627880275E-01  3.624342768942E-01  4.269807040660E-01
C41 -1.076627880275E-01  1.375657231058E-01 -7.301929593397E-02
C42  1.076627880275E-01  3.624342768942E-01  4.269807040660E-01
C43 -1.076627880275E-01 -1.375657231058E-01  7.301929593397E-02
C44  1.076627880275E-01 -3.624342768942E-01 -4.269807040660E-01
C45  1.431296791187E-01 -2.447723245172E-01  2.545300043000E-02
C46 -1.431296791187E-01 -2.552276754828E-01 -4.745469995700E-01
C47  1.431296791187E-01  2.447723245172E-01 -2.545300043000E-02
C48 -1.431296791187E-01  2.552276754828E-01  4.745469995700E-01
C49 -1.431296791187E-01  2.447723245172E-01 -2.545300043000E-02
C50  1.431296791187E-01  2.552276754828E-01  4.745469995700E-01
C51 -1.431296791187E-01 -2.447723245172E-01  2.545300043000E-02
C52  1.431296791187E-01 -2.552276754828E-01 -4.745469995700E-01
C53  1.915200979545E-01 -2.593891387131E-01  5.964836137300E-02
C54 -1.915200979545E-01 -2.406108612869E-01 -4.403516386270E-01
C55  1.915200979545E-01  2.593891387131E-01 -5.964836137300E-02
C56 -1.915200979545E-01  2.406108612869E-01  4.403516386270E-01
C57 -1.915200979545E-01  2.593891387131E-01 -5.964836137300E-02
C58  1.915200979545E-01  2.406108612869E-01  4.403516386270E-01
C59 -1.915200979545E-01 -2.593891387131E-01  5.964836137300E-02
C60  1.915200979545E-01 -2.406108612869E-01 -4.403516386270E-01
C61  2.061762609979E-01 -1.600954233709E-01  1.393135907329E-01
C62 -2.061762609979E-01 -3.399045766291E-01 -3.606864092671E-01
C63  2.061762609979E-01  1.600954233709E-01 -1.393135907329E-01
C64 -2.061762609979E-01  3.399045766291E-01  3.606864092671E-01
C65 -2.061762609979E-01  1.600954233709E-01 -1.393135907329E-01
C66  2.061762609979E-01  3.399045766291E-01  3.606864092671E-01
C67 -2.061762609979E-01 -1.600954233709E-01  1.393135907329E-01
C68  2.061762609979E-01 -3.399045766291E-01 -3.606864092671E-01
C69  1.717825025138E-01 -4.625813483322E-02  1.847635825867E-01
C70 -1.717825025138E-01 -4.537418651668E-01 -3.152364174133E-01
C71  1.717825025138E-01  4.625813483322E-02 -1.847635825867E-01
C72 -1.717825025138E-01  4.537418651668E-01  3.152364174133E-01
C73 -1.717825025138E-01  4.625813483322E-02 -1.847635825867E-01
C74  1.717825025138E-01  4.537418651668E-01  3.152364174133E-01
C75 -1.717825025138E-01 -4.625813483322E-02  1.847635825867E-01
C76  1.717825025138E-01 -4.537418651668E-01 -3.152364174133E-01
C77  1.230087085973E-01 -3.510550922549E-02  1.514019967882E-01
C78 -1.230087085973E-01 -4.648944907745E-01 -3.485980032118E-01
C79  1.230087085973E-01  3.510550922549E-02 -1.514019967882E-01
C80 -1.230087085973E-01  4.648944907745E-01  3.485980032118E-01
C81 -1.230087085973E-01  3.510550922549E-02 -1.514019967882E-01
C82  1.230087085973E-01  4.648944907745E-01  3.485980032118E-01
C83 -1.230087085973E-01 -3.510550922549E-02  1.514019967882E-01
C84  1.230087085973E-01 -4.648944907745E-01 -3.485980032118E-01
H85  9.228632152999E-02 -4.480616775168E-01  1.335927266872E-01
H86 -9.228632152999E-02 -5.193832248323E-02 -3.664072733128E-01
H87  9.228632152999E-02  4.480616775168E-01 -1.335927266872E-01
H88 -9.228632152999E-02  5.193832248323E-02  3.664072733128E-01
H89 -9.228632152999E-02  4.480616775168E-01 -1.335927266872E-01
H90  9.228632152999E-02  5.193832248323E-02  3.664072733128E-01
H91 -9.228632152999E-02 -4.480616775168E-01  1.335927266872E-01
H92  9.228632152999E-02 -5.193832248323E-02 -3.664072733128E-01
H93  4.598209863594E-02  2.888132959058E-01  1.958998446996E-01
H94 -4.598209863594E-02  2.111867040942E-01 -3.041001553004E-01
H95  4.598209863594E-02 -2.888132959058E-01 -1.958998446996E-01
H96 -4.598209863594E-02 -2.111867040942E-01  3.041001553004E-01
H97 -4.598209863594E-02 -2.888132959058E-01 -1.958998446996E-01
H98  4.598209863594E-02 -2.111867040942E-01  3.041001553004E-01
H99 -4.598209863594E-02  2.888132959058E-01  1.958998446996E-01
H100  4.598209863594E-02  2.111867040942E-01 -3.041001553004E-01
H101  1.321023798540E-01 -3.217058688220E-01 -3.695153851550E-02
H102 -1.321023798540E-01 -1.782941311780E-01  4.630484614845E-01
H103  1.321023798540E-01  3.217058688220E-01  3.695153851550E-02
H104 -1.321023798540E-01  1.782941311780E-01 -4.630484614845E-01
H105 -1.321023798540E-01  3.217058688220E-01  3.695153851550E-02
H106  1.321023798540E-01  1.782941311780E-01 -4.630484614845E-01
H107 -1.321023798540E-01 -3.217058688220E-01 -3.695153851550E-02
H108  1.321023798540E-01 -1.782941311780E-01  4.630484614845E-01
H109  2.186902471137E-01 -3.443998468374E-01  2.275067390489E-02
H110 -2.186902471137E-01 -1.556001531626E-01 -4.772493260951E-01
H111  2.186902471137E-01  3.443998468374E-01 -2.275067390489E-02
H112 -2.186902471137E-01  1.556001531626E-01  4.772493260951E-01
H113 -2.186902471137E-01  3.443998468374E-01 -2.275067390489E-02
H114  2.186902471137E-01  1.556001531626E-01  4.772493260951E-01
H115 -2.186902471137E-01 -3.443998468374E-01  2.275067390489E-02
H116  2.186902471137E-01 -1.556001531626E-01 -4.772493260951E-01
H117  2.440521979767E-01 -1.709915086038E-01  1.643139519819E-01
H118 -2.440521979767E-01 -3.290084913962E-01 -3.356860480181E-01
H119  2.440521979767E-01  1.709915086038E-01 -1.643139519819E-01
H120 -2.440521979767E-01  3.290084913962E-01  3.356860480181E-01
H121 -2.440521979767E-01  1.709915086038E-01 -1.643139519819E-01
H122  2.440521979767E-01  3.290084913962E-01  3.356860480181E-01
H123 -2.440521979767E-01 -1.709915086038E-01  1.643139519819E-01
H124  2.440521979767E-01 -3.290084913962E-01 -3.356860480181E-01
H125  1.828582898932E-01  3.819369188404E-02  2.443865669479E-01
H126 -1.828582898932E-01  4.618063081160E-01 -2.556134330521E-01
H127  1.828582898932E-01 -3.819369188404E-02 -2.443865669479E-01
H128 -1.828582898932E-01 -4.618063081160E-01  2.556134330521E-01
H129 -1.828582898932E-01 -3.819369188404E-02 -2.443865669479E-01
H130  1.828582898932E-01 -4.618063081160E-01  2.556134330521E-01
H131 -1.828582898932E-01  3.819369188404E-02  2.443865669479E-01
H132  1.828582898932E-01  4.618063081160E-01 -2.556134330521E-01
H133  9.617042446513E-02  5.175848743604E-02  1.879740446363E-01
H134 -9.617042446513E-02  4.482415125640E-01 -3.120259553637E-01
H135  9.617042446513E-02 -5.175848743604E-02 -1.879740446363E-01
H136 -9.617042446513E-02 -4.482415125640E-01  3.120259553637E-01
H137 -9.617042446513E-02 -5.175848743604E-02 -1.879740446363E-01
H138  9.617042446513E-02 -4.482415125640E-01  3.120259553637E-01
H139 -9.617042446513E-02  5.175848743604E-02  1.879740446363E-01
H140  9.617042446513E-02  4.482415125640E-01 -3.120259553637E-01


#===END

data_OPT_STEP_9

_symmetry_space_group_name_H-M 'P 1'
_cell_length_a     26.78900000
_cell_length_b      7.17000000
_cell_length_c     14.21100000
_cell_angle_alpha   90.000000
_cell_angle_beta   90.000000
_cell_angle_gamma   90.000000

loop_
_atom_site_label
_atom_site_fract_x
_atom_site_fract_y
_atom_site_fract_z
C1  2.742038741958E-02  6.993754972996E-19 -1.122777125345E-20
C2 -2.742038741958E-02  5.000000000000E-01 -5.000000000000E-01
C3 -2.742038741958E-02 -3.252360806640E-20 -1.122777125345E-20
C4  2.742038741958E-02  5.000000000000E-01 -5.000000000000E-01
C5  5.319455028346E-02 -1.433565996153E-01  4.897637967502E-02
C6 -5.319455028346E-02 -3.566434003847E-01 -4.510236203250E-01
C7  5.319455028346E-02  1.433565996153E-01 -4.897637967502E-02
C8 -5.319455028346E-02  3.566434003847E-01  4.510236203250E-01
C9 -5.319455028346E-02  1.433565996153E-01 -4.897637967502E-02
C10  5.319455028346E-02  3.566434003847E-01  4.510236203250E-01
C11 -5.319455028346E-02 -1.433565996153E-01  4.897637967502E-02
C12  5.319455028346E-02 -3.566434003847E-01 -4.510236203250E-01
C13  2.686598278908E-02 -2.935744334662E-01  8.788268684780E-02
C14 -2.686598278908E-02 -2.064255665338E-01 -4.121173131522E-01
C15  2.686598278908E-02  2.935744334662E-01 -8.788268684780E-02
C16 -2.686598278908E-02  2.064255665338E-01  4.121173131522E-01
C17 -2.686598278908E-02  2.935744334662E-01 -8.788268684780E-02
C18  2.686598278908E-02  2.064255665338E-01  4.121173131522E-01
C19 -2.686598278908E-02 -2.935744334662E-01  8.788268684780E-02
C20  2.686598278908E-02 -2.064255665338E-01 -4.121173131522E-01
C21  5.190258165547E-02 -4.479430960240E-01  1.311580162207E-01
C22 -5.190258165547E-02 -5.205690397596E-02 -3.688419837793E-01
C23  5.190258165547E-02  4.479430960240E-01 -1.311580162207E-01
C24 -5.190258165547E-02  5.205690397596E-02  3.688419837793E-01
C25 -5.190258165547E-02  4.479430960240E-01 -1.311580162207E-01
C26  5.190258165547E-02  5.205690397596E-02  3.688419837793E-01
C27 -5.190258165547E-02 -4.479430960240E-01  1.311580162207E-01
C28  5.190258165547E-02 -5.205690397596E-02 -3.688419837793E-01
C29  2.643185154474E-02  4.064323190889E-01  1.688308639150E-01
C30 -2.643185154474E-02  9.356768091111E-02 -3.311691360850E-01
C31  2.643185154474E-02 -4.064323190889E-01 -1.688308639150E-01
C32 -2.643185154474E-02 -9.356768091111E-02  3.311691360850E-01
C33 -2.643185154474E-02 -4.064323190889E-01 -1.688308639150E-01
C34  2.643185154474E-02 -9.356768091111E-02  3.311691360850E-01
C35 -2.643185154474E-02  4.064323190889E-01  1.688308639150E-01
C36  2.643185154474E-02  9.356768091111E-02 -3.311691360850E-01
C37  1.076712428284E-01 -1.359795566452E-01  7.253625290607E-02
C38 -1.076712428284E-01 -3.640204433548E-01 -4.274637470939E-01
C39  1.076712428284E-01  1.359795566452E-01 -7.253625290607E-02
C40 -1.076712428284E-01  3.640204433548E-01  4.274637470939E-01
C41 -1.076712428284E-01  1.359795566452E-01 -7.253625290607E-02
C42  1.076712428284E-01  3.640204433548E-01  4.274637470939E-01
C43 -1.076712428284E-01 -1.359795566452E-01  7.253625290607E-02
C44  1.076712428284E-01 -3.640204433548E-01 -4.274637470939E-01
C45  1.429999119215E-01 -2.443701460121E-01  2.547787917269E-02
C46 -1.429999119215E-01 -2.556298539879E-01 -4.745221208273E-01
C47  1.429999119215E-01  2.443701460121E-01 -2.547787917269E-02
C48 -1.429999119215E-01  2.556298539879E-01  4.745221208273E-01
C49 -1.429999119215E-01  2.443701460121E-01 -2.547787917269E-02
C50  1.429999119215E-01  2.556298539879E-01  4.745221208273E-01
C51 -1.429999119215E-01 -2.443701460121E-01  2.547787917269E-02
C52  1.429999119215E-01 -2.556298539879E-01 -4.745221208273E-01
C53  1.915909789751E-01 -2.564825502218E-01  5.851080541086E-02
C54 -1.915909789751E-01 -2.435174497782E-01 -4.414891945891E-01
C55  1.915909789751E-01  2.564825502218E-01 -5.851080541086E-02
C56 -1.915909789751E-01  2.435174497782E-01  4.414891945891E-01
C57 -1.915909789751E-01  2.564825502218E-01 -5.851080541086E-02
C58  1.915909789751E-01  2.435174497782E-01  4.414891945891E-01
C59 -1.915909789751E-01 -2.564825502218E-01  5.851080541086E-02
C60  1.915909789751E-01 -2.435174497782E-01 -4.414891945891E-01
C61  2.063650818287E-01 -1.563341570161E-01  1.376387552236E-01
C62 -2.063650818287E-01 -3.436658429839E-01 -3.623612447764E-01
C63  2.063650818287E-01  1.563341570161E-01 -1.376387552236E-01
C64 -2.063650818287E-01  3.436658429839E-01  3.623612447764E-01
C65 -2.063650818287E-01  1.563341570161E-01 -1.376387552236E-01
C66  2.063650818287E-01  3.436658429839E-01  3.623612447764E-01
C67 -2.063650818287E-01 -1.563341570161E-01  1.376387552236E-01
C68  2.063650818287E-01 -3.436658429839E-01 -3.623612447764E-01
C69  1.719551294582E-01 -4.298231883018E-02  1.833015666743E-01
C70 -1.719551294582E-01 -4.570176811698E-01 -3.166984333257E-01
C71  1.719551294582E-01  4.298231883018E-02 -1.833015666743E-01
C72 -1.719551294582E-01  4.570176811698E-01  3.166984333257E-01
C73 -1.719551294582E-01  4.298231883018E-02 -1.833015666743E-01
C74  1.719551294582E-01  4.570176811698E-01  3.166984333257E-01
C75 -1.719551294582E-01 -4.298231883018E-02  1.833015666743E-01
C76  1.719551294582E-01 -4.570176811698E-01 -3.166984333257E-01
C77  1.229939449809E-01 -3.455891229947E-02  1.512266545896E-01
C78 -1.229939449809E-01 -4.654410877005E-01 -3.487733454104E-01
C79  1.229939449809E-01  3.455891229947E-02 -1.512266545896E-01
C80 -1.229939449809E-01  4.654410877005E-01  3.487733454104E-01
C81 -1.229939449809E-01  3.455891229947E-02 -1.512266545896E-01
C82  1.229939449809E-01  4.654410877005E-01  3.487733454104E-01
C83 -1.229939449809E-01 -3.455891229947E-02  1.512266545896E-01
C84  1.229939449809E-01 -4.654410877005E-01 -3.487733454104E-01
H85  9.221753654867E-02 -4.489323145811E-01  1.331924981829E-01
H86 -9.221753654867E-02 -5.106768541892E-02 -3.668075018171E-01
H87  9.221753654867E-02  4.489323145811E-01 -1.331924981829E-01
H88 -9.221753654867E-02  5.106768541892E-02  3.668075018171E-01
H89 -9.221753654867E-02  4.489323145811E-01 -1.331924981829E-01
H90  9.221753654867E-02  5.106768541892E-02  3.668075018171E-01
H91 -9.221753654867E-02 -4.489323145811E-01  1.331924981829E-01
H92  9.221753654867E-02 -5.106768541892E-02 -3.668075018171E-01
H93  4.609796946125E-02  2.912551821770E-01  1.995642017658E-01
H94 -4.609796946125E-02  2.087448178230E-01 -3.004357982342E-01
H95  4.609796946125E-02 -2.912551821770E-01 -1.995642017658E-01
H96 -4.609796946125E-02 -2.087448178230E-01  3.004357982342E-01
H97 -4.609796946125E-02 -2.912551821770E-01 -1.995642017658E-01
H98  4.609796946125E-02 -2.087448178230E-01  3.004357982342E-01
H99 -4.609796946125E-02  2.912551821770E-01  1.995642017658E-01
H100  4.609796946125E-02  2.087448178230E-01 -3.004357982342E-01
H101  1.319280791650E-01 -3.219220557347E-01 -3.648704622273E-02
H102 -1.319280791650E-01 -1.780779442653E-01  4.635129537773E-01
H103  1.319280791650E-01  3.219220557347E-01  3.648704622273E-02
H104 -1.319280791650E-01  1.780779442653E-01 -4.635129537773E-01
H105 -1.319280791650E-01  3.219220557347E-01  3.648704622273E-02
H106  1.319280791650E-01  1.780779442653E-01 -4.635129537773E-01
H107 -1.319280791650E-01 -3.219220557347E-01 -3.648704622273E-02
H108  1.319280791650E-01 -1.780779442653E-01  4.635129537773E-01
H109  2.185396276628E-01 -3.432695072561E-01  2.252052104630E-02
H110 -2.185396276628E-01 -1.567304927439E-01 -4.774794789537E-01
H111  2.185396276628E-01  3.432695072561E-01 -2.252052104630E-02
H112 -2.185396276628E-01  1.567304927439E-01  4.774794789537E-01
H113 -2.185396276628E-01  3.432695072561E-01 -2.252052104630E-02
H114  2.185396276628E-01  1.567304927439E-01  4.774794789537E-01
H115 -2.185396276628E-01 -3.432695072561E-01  2.252052104630E-02
H116  2.185396276628E-01 -1.567304927439E-01 -4.774794789537E-01
H117  2.442981849665E-01 -1.681141379709E-01  1.630300906229E-01
H118 -2.442981849665E-01 -3.318858620291E-01 -3.369699093771E-01
H119  2.442981849665E-01  1.681141379709E-01 -1.630300906229E-01
H120 -2.442981849665E-01  3.318858620291E-01  3.369699093771E-01
H121 -2.442981849665E-01  1.681141379709E-01 -1.630300906229E-01
H122  2.442981849665E-01  3.318858620291E-01  3.369699093771E-01
H123 -2.442981849665E-01 -1.681141379709E-01  1.630300906229E-01
H124  2.442981849665E-01 -3.318858620291E-01 -3.369699093771E-01
H125  1.827874946935E-01  3.753330757113E-02  2.445576982106E-01
H126 -1.827874946935E-01  4.624666924289E-01 -2.554423017894E-01
H127  1.827874946935E-01 -3.753330757113E-02 -2.445576982106E-01
H128 -1.827874946935E-01 -4.624666924289E-01  2.554423017894E-01
H129 -1.827874946935E-01 -3.753330757113E-02 -2.445576982106E-01
H130  1.827874946935E-01 -4.624666924289E-01  2.554423017894E-01
H131 -1.827874946935E-01  3.753330757113E-02  2.445576982106E-01
H132  1.827874946935E-01  4.624666924289E-01 -2.554423017894E-01
H133  9.602154445981E-02  5.062512206619E-02  1.882419135027E-01
H134 -9.602154445981E-02  4.493748779338E-01 -3.117580864973E-01
H135  9.602154445981E-02 -5.062512206619E-02 -1.882419135027E-01
H136 -9.602154445981E-02 -4.493748779338E-01  3.117580864973E-01
H137 -9.602154445981E-02 -5.062512206619E-02 -1.882419135027E-01
H138  9.602154445981E-02 -4.493748779338E-01  3.117580864973E-01
H139 -9.602154445981E-02  5.062512206619E-02  1.882419135027E-01
H140  9.602154445981E-02  4.493748779338E-01 -3.117580864973E-01


#===END

data_OPT_STEP_10

_symmetry_space_group_name_H-M 'P 1'
_cell_length_a     26.78900000
_cell_length_b      7.17000000
_cell_length_c     14.21100000
_cell_angle_alpha   90.000000
_cell_angle_beta   90.000000
_cell_angle_gamma   90.000000

loop_
_atom_site_label
_atom_site_fract_x
_atom_site_fract_y
_atom_site_fract_z
C1  2.740368593781E-02  6.725490883635E-19 -1.217825432259E-20
C2 -2.740368593781E-02  5.000000000000E-01 -5.000000000000E-01
C3 -2.740368593781E-02 -5.716040486665E-20 -1.217825432259E-20
C4  2.740368593781E-02  5.000000000000E-01 -5.000000000000E-01
C5  5.311362198664E-02 -1.434761811411E-01  4.904724013681E-02
C6 -5.311362198664E-02 -3.565238188589E-01 -4.509527598632E-01
C7  5.311362198664E-02  1.434761811411E-01 -4.904724013681E-02
C8 -5.311362198664E-02  3.565238188589E-01  4.509527598632E-01
C9 -5.311362198664E-02  1.434761811411E-01 -4.904724013681E-02
C10  5.311362198664E-02  3.565238188589E-01  4.509527598632E-01
C11 -5.311362198664E-02 -1.434761811411E-01  4.904724013681E-02
C12  5.311362198664E-02 -3.565238188589E-01 -4.509527598632E-01
C13  2.685325490767E-02 -2.952107541793E-01  8.649988355653E-02
C14 -2.685325490767E-02 -2.047892458207E-01 -4.135001164435E-01
C15  2.685325490767E-02  2.952107541793E-01 -8.649988355653E-02
C16 -2.685325490767E-02  2.047892458207E-01  4.135001164435E-01
C17 -2.685325490767E-02  2.952107541793E-01 -8.649988355653E-02
C18  2.685325490767E-02  2.047892458207E-01  4.135001164435E-01
C19 -2.685325490767E-02 -2.952107541793E-01  8.649988355653E-02
C20  2.685325490767E-02 -2.047892458207E-01 -4.135001164435E-01
C21  5.187681649584E-02 -4.462819267791E-01  1.326408818943E-01
C22 -5.187681649584E-02 -5.371807322089E-02 -3.673591181057E-01
C23  5.187681649584E-02  4.462819267791E-01 -1.326408818943E-01
C24 -5.187681649584E-02  5.371807322089E-02  3.673591181057E-01
C25 -5.187681649584E-02  4.462819267791E-01 -1.326408818943E-01
C26  5.187681649584E-02  5.371807322089E-02  3.673591181057E-01
C27 -5.187681649584E-02 -4.462819267791E-01  1.326408818943E-01
C28  5.187681649584E-02 -5.371807322089E-02 -3.673591181057E-01
C29  2.643990377049E-02  4.101589748048E-01  1.725345542741E-01
C30 -2.643990377049E-02  8.984102519520E-02 -3.274654457259E-01
C31  2.643990377049E-02 -4.101589748048E-01 -1.725345542741E-01
C32 -2.643990377049E-02 -8.984102519520E-02  3.274654457259E-01
C33 -2.643990377049E-02 -4.101589748048E-01 -1.725345542741E-01
C34  2.643990377049E-02 -8.984102519520E-02  3.274654457259E-01
C35 -2.643990377049E-02  4.101589748048E-01  1.725345542741E-01
C36  2.643990377049E-02  8.984102519520E-02 -3.274654457259E-01
C37  1.076231788664E-01 -1.369426187610E-01  7.234831560403E-02
C38 -1.076231788664E-01 -3.630573812390E-01 -4.276516843960E-01
C39  1.076231788664E-01  1.369426187610E-01 -7.234831560403E-02
C40 -1.076231788664E-01  3.630573812390E-01  4.276516843960E-01
C41 -1.076231788664E-01  1.369426187610E-01 -7.234831560403E-02
C42  1.076231788664E-01  3.630573812390E-01  4.276516843960E-01
C43 -1.076231788664E-01 -1.369426187610E-01  7.234831560403E-02
C44  1.076231788664E-01 -3.630573812390E-01 -4.276516843960E-01
C45  1.425705120253E-01 -2.498508247055E-01  2.716772832487E-02
C46 -1.425705120253E-01 -2.501491752945E-01 -4.728322716751E-01
C47  1.425705120253E-01  2.498508247055E-01 -2.716772832487E-02
C48 -1.425705120253E-01  2.501491752945E-01  4.728322716751E-01
C49 -1.425705120253E-01  2.498508247055E-01 -2.716772832487E-02
C50  1.425705120253E-01  2.501491752945E-01  4.728322716751E-01
C51 -1.425705120253E-01 -2.498508247055E-01  2.716772832487E-02
C52  1.425705120253E-01 -2.501491752945E-01 -4.728322716751E-01
C53  1.916668130553E-01 -2.565401463693E-01  5.781155050832E-02
C54 -1.916668130553E-01 -2.434598536307E-01 -4.421884494917E-01
C55  1.916668130553E-01  2.565401463693E-01 -5.781155050832E-02
C56 -1.916668130553E-01  2.434598536307E-01  4.421884494917E-01
C57 -1.916668130553E-01  2.565401463693E-01 -5.781155050832E-02
C58  1.916668130553E-01  2.434598536307E-01  4.421884494917E-01
C59 -1.916668130553E-01 -2.565401463693E-01  5.781155050832E-02
C60  1.916668130553E-01 -2.434598536307E-01 -4.421884494917E-01
C61  2.067340920712E-01 -1.530078533189E-01  1.354855653890E-01
C62 -2.067340920711E-01 -3.469921466811E-01 -3.645144346110E-01
C63  2.067340920712E-01  1.530078533189E-01 -1.354855653890E-01
C64 -2.067340920712E-01  3.469921466811E-01  3.645144346110E-01
C65 -2.067340920712E-01  1.530078533189E-01 -1.354855653890E-01
C66  2.067340920711E-01  3.469921466811E-01  3.645144346110E-01
C67 -2.067340920712E-01 -1.530078533189E-01  1.354855653890E-01
C68  2.067340920712E-01 -3.469921466811E-01 -3.645144346110E-01
C69  1.721366186641E-01 -4.178541117173E-02  1.820821754307E-01
C70 -1.721366186641E-01 -4.582145888283E-01 -3.179178245693E-01
C71  1.721366186641E-01  4.178541117173E-02 -1.820821754307E-01
C72 -1.721366186641E-01  4.582145888283E-01  3.179178245693E-01
C73 -1.721366186641E-01  4.178541117173E-02 -1.820821754307E-01
C74  1.721366186641E-01  4.582145888283E-01  3.179178245693E-01
C75 -1.721366186641E-01 -4.178541117173E-02  1.820821754307E-01
C76  1.721366186641E-01 -4.582145888283E-01 -3.179178245693E-01
C77  1.230235094101E-01 -3.538939678649E-02  1.508860682575E-01
C78 -1.230235094101E-01 -4.646106032135E-01 -3.491139317425E-01
C79  1.230235094101E-01  3.538939678649E-02 -1.508860682575E-01
C80 -1.230235094101E-01  4.646106032135E-01  3.491139317425E-01
C81 -1.230235094101E-01  3.538939678649E-02 -1.508860682575E-01
C82  1.230235094101E-01  4.646106032135E-01  3.491139317425E-01
C83 -1.230235094101E-01 -3.538939678649E-02  1.508860682575E-01
C84  1.230235094101E-01 -4.646106032135E-01 -3.491139317425E-01
H85  9.217265545483E-02 -4.468460176770E-01  1.343953130034E-01
H86 -9.217265545483E-02 -5.315398232302E-02 -3.656046869966E-01
H87  9.217265545483E-02  4.468460176770E-01 -1.343953130034E-01
H88 -9.217265545483E-02  5.315398232302E-02  3.656046869966E-01
H89 -9.217265545483E-02  4.468460176770E-01 -1.343953130034E-01
H90  9.217265545483E-02  5.315398232302E-02  3.656046869966E-01
H91 -9.217265545483E-02 -4.468460176770E-01  1.343953130034E-01
H92  9.217265545483E-02 -5.315398232302E-02 -3.656046869966E-01
H93  4.623366307193E-02  2.962973897305E-01  2.051819965536E-01
H94 -4.623366307193E-02  2.037026102695E-01 -2.948180034464E-01
H95  4.623366307193E-02 -2.962973897305E-01 -2.051819965536E-01
H96 -4.623366307193E-02 -2.037026102695E-01  2.948180034464E-01
H97 -4.623366307193E-02 -2.962973897305E-01 -2.051819965536E-01
H98  4.623366307193E-02 -2.037026102695E-01  2.948180034464E-01
H99 -4.623366307193E-02  2.962973897305E-01  2.051819965536E-01
H100  4.623366307193E-02  2.037026102695E-01 -2.948180034464E-01
H101  1.312256153393E-01 -3.305678524609E-01 -3.339506254621E-02
H102 -1.312256153393E-01 -1.694321475391E-01  4.666049374538E-01
H103  1.312256153393E-01  3.305678524609E-01  3.339506254621E-02
H104 -1.312256153393E-01  1.694321475391E-01 -4.666049374538E-01
H105 -1.312256153393E-01  3.305678524609E-01  3.339506254621E-02
H106  1.312256153393E-01  1.694321475391E-01 -4.666049374538E-01
H107 -1.312256153393E-01 -3.305678524609E-01 -3.339506254621E-02
H108  1.312256153393E-01 -1.694321475391E-01  4.666049374538E-01
H109  2.185062703565E-01 -3.436853581594E-01  2.183194971765E-02
H110 -2.185062703565E-01 -1.563146418406E-01 -4.781680502824E-01
H111  2.185062703565E-01  3.436853581594E-01 -2.183194971765E-02
H112 -2.185062703565E-01  1.563146418406E-01  4.781680502823E-01
H113 -2.185062703565E-01  3.436853581594E-01 -2.183194971765E-02
H114  2.185062703565E-01  1.563146418406E-01  4.781680502823E-01
H115 -2.185062703565E-01 -3.436853581594E-01  2.183194971765E-02
H116  2.185062703565E-01 -1.563146418406E-01 -4.781680502824E-01
H117  2.452492303421E-01 -1.581774248122E-01  1.580736002098E-01
H118 -2.452492303421E-01 -3.418225751878E-01 -3.419263997902E-01
H119  2.452492303421E-01  1.581774248122E-01 -1.580736002098E-01
H120 -2.452492303421E-01  3.418225751878E-01  3.419263997902E-01
H121 -2.452492303421E-01  1.581774248122E-01 -1.580736002098E-01
H122  2.452492303421E-01  3.418225751878E-01  3.419263997902E-01
H123 -2.452492303421E-01 -1.581774248122E-01  1.580736002098E-01
H124  2.452492303421E-01 -3.418225751878E-01 -3.419263997902E-01
H125  1.830390348339E-01  3.941701128023E-02  2.430314660225E-01
H126 -1.830390348339E-01  4.605829887198E-01 -2.569685339775E-01
H127  1.830390348339E-01 -3.941701128023E-02 -2.430314660225E-01
H128 -1.830390348339E-01 -4.605829887198E-01  2.569685339775E-01
H129 -1.830390348339E-01 -3.941701128023E-02 -2.430314660225E-01
H130  1.830390348339E-01 -4.605829887198E-01  2.569685339775E-01
H131 -1.830390348339E-01  3.941701128023E-02  2.430314660225E-01
H132  1.830390348339E-01  4.605829887198E-01 -2.569685339775E-01
H133  9.600418248836E-02  4.944690017861E-02  1.878616265504E-01
H134 -9.600418248836E-02  4.505530998214E-01 -3.121383734496E-01
H135  9.600418248836E-02 -4.944690017861E-02 -1.878616265504E-01
H136 -9.600418248836E-02 -4.505530998214E-01  3.121383734496E-01
H137 -9.600418248836E-02 -4.944690017861E-02 -1.878616265504E-01
H138  9.600418248836E-02 -4.505530998214E-01  3.121383734496E-01
H139 -9.600418248836E-02  4.944690017861E-02  1.878616265504E-01
H140  9.600418248836E-02  4.505530998214E-01 -3.121383734496E-01


#===END

data_OPT_STEP_11

_symmetry_space_group_name_H-M 'P 1'
_cell_length_a     26.78900000
_cell_length_b      7.17000000
_cell_length_c     14.21100000
_cell_angle_alpha   90.000000
_cell_angle_beta   90.000000
_cell_angle_gamma   90.000000

loop_
_atom_site_label
_atom_site_fract_x
_atom_site_fract_y
_atom_site_fract_z
C1  2.742321248080E-02  6.449705002410E-19 -1.257472185592E-20
C2 -2.742321248080E-02  5.000000000000E-01 -5.000000000000E-01
C3 -2.742321248080E-02 -8.729897874879E-20 -1.257472185592E-20
C4  2.742321248080E-02  5.000000000000E-01 -5.000000000000E-01
C5  5.314838525463E-02 -1.436350069860E-01  4.905178779183E-02
C6 -5.314838525463E-02 -3.563649930140E-01 -4.509482122082E-01
C7  5.314838525463E-02  1.436350069860E-01 -4.905178779183E-02
C8 -5.314838525463E-02  3.563649930140E-01  4.509482122082E-01
C9 -5.314838525463E-02  1.436350069860E-01 -4.905178779183E-02
C10  5.314838525463E-02  3.563649930140E-01  4.509482122082E-01
C11 -5.314838525463E-02 -1.436350069860E-01  4.905178779183E-02
C12  5.314838525463E-02 -3.563649930140E-01 -4.509482122082E-01
C13  2.684438370800E-02 -2.939833185736E-01  8.761739817834E-02
C14 -2.684438370800E-02 -2.060166814264E-01 -4.123826018217E-01
C15  2.684438370800E-02  2.939833185736E-01 -8.761739817834E-02
C16 -2.684438370800E-02  2.060166814264E-01  4.123826018217E-01
C17 -2.684438370800E-02  2.939833185736E-01 -8.761739817834E-02
C18  2.684438370800E-02  2.060166814264E-01  4.123826018217E-01
C19 -2.684438370800E-02 -2.939833185736E-01  8.761739817834E-02
C20  2.684438370800E-02 -2.060166814264E-01 -4.123826018217E-01
C21  5.188992189498E-02 -4.461607216261E-01  1.328377556489E-01
C22 -5.188992189498E-02 -5.383927837387E-02 -3.671622443511E-01
C23  5.188992189498E-02  4.461607216261E-01 -1.328377556489E-01
C24 -5.188992189498E-02  5.383927837387E-02  3.671622443511E-01
C25 -5.188992189498E-02  4.461607216261E-01 -1.328377556489E-01
C26  5.188992189498E-02  5.383927837387E-02  3.671622443511E-01
C27 -5.188992189498E-02 -4.461607216261E-01  1.328377556489E-01
C28  5.188992189498E-02 -5.383927837387E-02 -3.671622443511E-01
C29  2.644322486522E-02  4.107250971255E-01  1.731829491000E-01
C30 -2.644322486522E-02  8.927490287453E-02 -3.268170509000E-01
C31  2.644322486522E-02 -4.107250971255E-01 -1.731829491000E-01
C32 -2.644322486522E-02 -8.927490287453E-02  3.268170509000E-01
C33 -2.644322486522E-02 -4.107250971255E-01 -1.731829491000E-01
C34  2.644322486522E-02 -8.927490287453E-02  3.268170509000E-01
C35 -2.644322486522E-02  4.107250971255E-01  1.731829491000E-01
C36  2.644322486522E-02  8.927490287453E-02 -3.268170509000E-01
C37  1.076304871694E-01 -1.370599694072E-01  7.247334008193E-02
C38 -1.076304871694E-01 -3.629400305928E-01 -4.275266599181E-01
C39  1.076304871694E-01  1.370599694072E-01 -7.247334008193E-02
C40 -1.076304871694E-01  3.629400305928E-01  4.275266599181E-01
C41 -1.076304871694E-01  1.370599694072E-01 -7.247334008193E-02
C42  1.076304871694E-01  3.629400305928E-01  4.275266599181E-01
C43 -1.076304871694E-01 -1.370599694072E-01  7.247334008193E-02
C44  1.076304871694E-01 -3.629400305928E-01 -4.275266599181E-01
C45  1.426697525489E-01 -2.484725858531E-01  2.652949398876E-02
C46 -1.426697525489E-01 -2.515274141469E-01 -4.734705060112E-01
C47  1.426697525489E-01  2.484725858531E-01 -2.652949398876E-02
C48 -1.426697525489E-01  2.515274141469E-01  4.734705060112E-01
C49 -1.426697525489E-01  2.484725858531E-01 -2.652949398876E-02
C50  1.426697525489E-01  2.515274141469E-01  4.734705060112E-01
C51 -1.426697525489E-01 -2.484725858531E-01  2.652949398876E-02
C52  1.426697525489E-01 -2.515274141469E-01 -4.734705060112E-01
C53  1.917145692944E-01 -2.562299070034E-01  5.767202901520E-02
C54 -1.917145692944E-01 -2.437700929966E-01 -4.423279709848E-01
C55  1.917145692944E-01  2.562299070034E-01 -5.767202901520E-02
C56 -1.917145692944E-01  2.437700929966E-01  4.423279709848E-01
C57 -1.917145692944E-01  2.562299070034E-01 -5.767202901520E-02
C58  1.917145692944E-01  2.437700929966E-01  4.423279709848E-01
C59 -1.917145692944E-01 -2.562299070034E-01  5.767202901520E-02
C60  1.917145692944E-01 -2.437700929966E-01 -4.423279709848E-01
C61  2.068661308663E-01 -1.518625326239E-01  1.351002280341E-01
C62 -2.068661308663E-01 -3.481374673761E-01 -3.648997719659E-01
C63  2.068661308663E-01  1.518625326239E-01 -1.351002280341E-01
C64 -2.068661308663E-01  3.481374673761E-01  3.648997719659E-01
C65 -2.068661308663E-01  1.518625326239E-01 -1.351002280341E-01
C66  2.068661308663E-01  3.481374673761E-01  3.648997719659E-01
C67 -2.068661308663E-01 -1.518625326239E-01  1.351002280341E-01
C68  2.068661308663E-01 -3.481374673761E-01 -3.648997719659E-01
C69  1.722909986925E-01 -4.033859181998E-02  1.815954856313E-01
C70 -1.722909986925E-01 -4.596614081800E-01 -3.184045143687E-01
C71  1.722909986925E-01  4.033859181998E-02 -1.815954856313E-01
C72 -1.722909986925E-01  4.596614081800E-01  3.184045143687E-01
C73 -1.722909986925E-01  4.033859181998E-02 -1.815954856313E-01
C74  1.722909986925E-01  4.596614081800E-01  3.184045143687E-01
C75 -1.722909986925E-01 -4.033859181998E-02  1.815954856313E-01
C76  1.722909986925E-01 -4.596614081800E-01 -3.184045143687E-01
C77  1.231150456290E-01 -3.443280652478E-02  1.506148000670E-01
C78 -1.231150456290E-01 -4.655671934752E-01 -3.493851999330E-01
C79  1.231150456290E-01  3.443280652478E-02 -1.506148000670E-01
C80 -1.231150456290E-01  4.655671934752E-01  3.493851999330E-01
C81 -1.231150456290E-01  3.443280652478E-02 -1.506148000670E-01
C82  1.231150456290E-01  4.655671934752E-01  3.493851999330E-01
C83 -1.231150456290E-01 -3.443280652478E-02  1.506148000670E-01
C84  1.231150456290E-01 -4.655671934752E-01 -3.493851999330E-01
H85  9.218641368118E-02 -4.467141989712E-01  1.345105376165E-01
H86 -9.218641368118E-02 -5.328580102881E-02 -3.654894623835E-01
H87  9.218641368118E-02  4.467141989712E-01 -1.345105376165E-01
H88 -9.218641368118E-02  5.328580102881E-02  3.654894623835E-01
H89 -9.218641368118E-02  4.467141989712E-01 -1.345105376165E-01
H90  9.218641368118E-02  5.328580102881E-02  3.654894623835E-01
H91 -9.218641368118E-02 -4.467141989712E-01  1.345105376165E-01
H92  9.218641368118E-02 -5.328580102881E-02 -3.654894623835E-01
H93  4.624734234792E-02  2.975094271084E-01  2.065614490219E-01
H94 -4.624734234792E-02  2.024905728916E-01 -2.934385509781E-01
H95  4.624734234792E-02 -2.975094271084E-01 -2.065614490219E-01
H96 -4.624734234792E-02 -2.024905728916E-01  2.934385509781E-01
H97 -4.624734234792E-02 -2.975094271084E-01 -2.065614490219E-01
H98  4.624734234792E-02 -2.024905728916E-01  2.934385509781E-01
H99 -4.624734234792E-02  2.975094271084E-01  2.065614490219E-01
H100  4.624734234792E-02  2.024905728916E-01 -2.934385509781E-01
H101  1.312140636253E-01 -3.301491218688E-01 -3.364977641447E-02
H102 -1.312140636253E-01 -1.698508781312E-01  4.663502235855E-01
H103  1.312140636253E-01  3.301491218688E-01  3.364977641447E-02
H104 -1.312140636253E-01  1.698508781312E-01 -4.663502235855E-01
H105 -1.312140636253E-01  3.301491218688E-01  3.364977641447E-02
H106  1.312140636253E-01  1.698508781312E-01 -4.663502235855E-01
H107 -1.312140636253E-01 -3.301491218688E-01 -3.364977641447E-02
H108  1.312140636253E-01 -1.698508781312E-01  4.663502235855E-01
H109  2.184893425248E-01 -3.436486981678E-01  2.164815998107E-02
H110 -2.184893425248E-01 -1.563513018322E-01 -4.783518400189E-01
H111  2.184893425248E-01  3.436486981678E-01 -2.164815998107E-02
H112 -2.184893425248E-01  1.563513018322E-01  4.783518400189E-01
H113 -2.184893425248E-01  3.436486981678E-01 -2.164815998107E-02
H114  2.184893425248E-01  1.563513018322E-01  4.783518400189E-01
H115 -2.184893425248E-01 -3.436486981678E-01  2.164815998107E-02
H116  2.184893425248E-01 -1.563513018322E-01 -4.783518400189E-01
H117  2.453011296239E-01 -1.583326916635E-01  1.583612176301E-01
H118 -2.453011296239E-01 -3.416673083365E-01 -3.416387823699E-01
H119  2.453011296239E-01  1.583326916635E-01 -1.583612176301E-01
H120 -2.453011296239E-01  3.416673083365E-01  3.416387823699E-01
H121 -2.453011296239E-01  1.583326916635E-01 -1.583612176301E-01
H122  2.453011296239E-01  3.416673083365E-01  3.416387823699E-01
H123 -2.453011296239E-01 -1.583326916635E-01  1.583612176301E-01
H124  2.453011296239E-01 -3.416673083365E-01 -3.416387823699E-01
H125  1.833083532525E-01  4.213922982421E-02  2.419811036534E-01
H126 -1.833083532525E-01  4.578607701758E-01 -2.580188963466E-01
H127  1.833083532525E-01 -4.213922982421E-02 -2.419811036534E-01
H128 -1.833083532525E-01 -4.578607701758E-01  2.580188963466E-01
H129 -1.833083532525E-01 -4.213922982421E-02 -2.419811036534E-01
H130  1.833083532525E-01 -4.578607701758E-01  2.580188963466E-01
H131 -1.833083532525E-01  4.213922982421E-02  2.419811036534E-01
H132  1.833083532525E-01  4.578607701758E-01 -2.580188963466E-01
H133  9.607283643401E-02  5.004908438985E-02  1.877376405206E-01
H134 -9.607283643401E-02  4.499509156101E-01 -3.122623594794E-01
H135  9.607283643401E-02 -5.004908438985E-02 -1.877376405206E-01
H136 -9.607283643401E-02 -4.499509156101E-01  3.122623594794E-01
H137 -9.607283643401E-02 -5.004908438985E-02 -1.877376405206E-01
H138  9.607283643401E-02 -4.499509156101E-01  3.122623594794E-01
H139 -9.607283643401E-02  5.004908438985E-02  1.877376405206E-01
H140  9.607283643401E-02  4.499509156101E-01 -3.122623594794E-01


#===END

data_OPT_STEP_12

_symmetry_space_group_name_H-M 'P 1'
_cell_length_a     26.78900000
_cell_length_b      7.17000000
_cell_length_c     14.21100000
_cell_angle_alpha   90.000000
_cell_angle_beta   90.000000
_cell_angle_gamma   90.000000

loop_
_atom_site_label
_atom_site_fract_x
_atom_site_fract_y
_atom_site_fract_z
C1  2.740900965172E-02  5.461236021246E-19 -1.259035014765E-20
C2 -2.740900965172E-02  5.000000000000E-01 -5.000000000000E-01
C3 -2.740900965172E-02 -1.842838452590E-19 -1.259035014765E-20
C4  2.740900965172E-02  5.000000000000E-01 -5.000000000000E-01
C5  5.314505989472E-02 -1.427648810344E-01  4.959885019597E-02
C6 -5.314505989472E-02 -3.572351189656E-01 -4.504011498040E-01
C7  5.314505989472E-02  1.427648810344E-01 -4.959885019597E-02
C8 -5.314505989472E-02  3.572351189656E-01  4.504011498040E-01
C9 -5.314505989472E-02  1.427648810344E-01 -4.959885019597E-02
C10  5.314505989472E-02  3.572351189656E-01  4.504011498040E-01
C11 -5.314505989472E-02 -1.427648810344E-01  4.959885019597E-02
C12  5.314505989472E-02 -3.572351189656E-01 -4.504011498040E-01
C13  2.685288796850E-02 -2.928532340411E-01  8.847709913440E-02
C14 -2.685288796850E-02 -2.071467659589E-01 -4.115229008656E-01
C15  2.685288796850E-02  2.928532340411E-01 -8.847709913440E-02
C16 -2.685288796850E-02  2.071467659589E-01  4.115229008656E-01
C17 -2.685288796850E-02  2.928532340411E-01 -8.847709913440E-02
C18  2.685288796850E-02  2.071467659589E-01  4.115229008656E-01
C19 -2.685288796850E-02 -2.928532340411E-01  8.847709913440E-02
C20  2.685288796850E-02 -2.071467659589E-01 -4.115229008656E-01
C21  5.190029855436E-02 -4.445775539394E-01  1.341246857344E-01
C22 -5.190029855435E-02 -5.542244606058E-02 -3.658753142656E-01
C23  5.190029855436E-02  4.445775539394E-01 -1.341246857344E-01
C24 -5.190029855436E-02  5.542244606058E-02  3.658753142656E-01
C25 -5.190029855435E-02  4.445775539394E-01 -1.341246857344E-01
C26  5.190029855435E-02  5.542244606058E-02  3.658753142656E-01
C27 -5.190029855436E-02 -4.445775539394E-01  1.341246857344E-01
C28  5.190029855436E-02 -5.542244606058E-02 -3.658753142656E-01
C29  2.644495390233E-02  4.122648323124E-01  1.743863097399E-01
C30 -2.644495390233E-02  8.773516768762E-02 -3.256136902601E-01
C31  2.644495390233E-02 -4.122648323124E-01 -1.743863097399E-01
C32 -2.644495390233E-02 -8.773516768762E-02  3.256136902601E-01
C33 -2.644495390233E-02 -4.122648323124E-01 -1.743863097399E-01
C34  2.644495390233E-02 -8.773516768762E-02  3.256136902601E-01
C35 -2.644495390233E-02  4.122648323124E-01  1.743863097399E-01
C36  2.644495390233E-02  8.773516768762E-02 -3.256136902601E-01
C37  1.076831275647E-01 -1.355155679771E-01  7.253637203079E-02
C38 -1.076831275647E-01 -3.644844320229E-01 -4.274636279692E-01
C39  1.076831275647E-01  1.355155679771E-01 -7.253637203079E-02
C40 -1.076831275647E-01  3.644844320229E-01  4.274636279692E-01
C41 -1.076831275647E-01  1.355155679771E-01 -7.253637203079E-02
C42  1.076831275647E-01  3.644844320229E-01  4.274636279692E-01
C43 -1.076831275647E-01 -1.355155679771E-01  7.253637203079E-02
C44  1.076831275647E-01 -3.644844320229E-01 -4.274636279692E-01
C45  1.426843030495E-01 -2.467005291659E-01  2.634838673837E-02
C46 -1.426843030495E-01 -2.532994708341E-01 -4.736516132616E-01
C47  1.426843030495E-01  2.467005291659E-01 -2.634838673837E-02
C48 -1.426843030495E-01  2.532994708341E-01  4.736516132616E-01
C49 -1.426843030495E-01  2.467005291659E-01 -2.634838673837E-02
C50  1.426843030495E-01  2.532994708341E-01  4.736516132616E-01
C51 -1.426843030495E-01 -2.467005291659E-01  2.634838673837E-02
C52  1.426843030495E-01 -2.532994708341E-01 -4.736516132616E-01
C53  1.917595237161E-01 -2.543936145951E-01  5.737373044356E-02
C54 -1.917595237161E-01 -2.456063854049E-01 -4.426262695564E-01
C55  1.917595237161E-01  2.543936145951E-01 -5.737373044356E-02
C56 -1.917595237161E-01  2.456063854049E-01  4.426262695564E-01
C57 -1.917595237161E-01  2.543936145951E-01 -5.737373044356E-02
C58  1.917595237161E-01  2.456063854049E-01  4.426262695564E-01
C59 -1.917595237161E-01 -2.543936145951E-01  5.737373044356E-02
C60  1.917595237161E-01 -2.456063854049E-01 -4.426262695564E-01
C61  2.070947041109E-01 -1.487000371554E-01  1.342537772143E-01
C62 -2.070947041109E-01 -3.512999628446E-01 -3.657462227857E-01
C63  2.070947041109E-01  1.487000371554E-01 -1.342537772143E-01
C64 -2.070947041109E-01  3.512999628446E-01  3.657462227857E-01
C65 -2.070947041109E-01  1.487000371554E-01 -1.342537772143E-01
C66  2.070947041109E-01  3.512999628446E-01  3.657462227857E-01
C67 -2.070947041109E-01 -1.487000371554E-01  1.342537772143E-01
C68  2.070947041109E-01 -3.512999628446E-01 -3.657462227857E-01
C69  1.726611961733E-01 -3.607220828061E-02  1.803764094095E-01
C70 -1.726611961733E-01 -4.639277917194E-01 -3.196235905905E-01
C71  1.726611961733E-01  3.607220828061E-02 -1.803764094095E-01
C72 -1.726611961733E-01  4.639277917194E-01  3.196235905905E-01
C73 -1.726611961733E-01  3.607220828061E-02 -1.803764094095E-01
C74  1.726611961733E-01  4.639277917194E-01  3.196235905905E-01
C75 -1.726611961733E-01 -3.607220828061E-02  1.803764094095E-01
C76  1.726611961733E-01 -4.639277917194E-01 -3.196235905905E-01
C77  1.234270720105E-01 -3.038824988813E-02  1.496223202000E-01
C78 -1.234270720105E-01 -4.696117501119E-01 -3.503776798000E-01
C79  1.234270720105E-01  3.038824988813E-02 -1.496223202000E-01
C80 -1.234270720105E-01  4.696117501119E-01  3.503776798000E-01
C81 -1.234270720105E-01  3.038824988813E-02 -1.496223202000E-01
C82  1.234270720105E-01  4.696117501119E-01  3.503776798000E-01
C83 -1.234270720105E-01 -3.038824988813E-02  1.496223202000E-01
C84  1.234270720105E-01 -4.696117501119E-01 -3.503776798000E-01
H85  9.219436277218E-02 -4.451743864437E-01  1.356431654081E-01
H86 -9.219436277218E-02 -5.482561355628E-02 -3.643568345919E-01
H87  9.219436277218E-02  4.451743864437E-01 -1.356431654081E-01
H88 -9.219436277218E-02  5.482561355628E-02  3.643568345919E-01
H89 -9.219436277218E-02  4.451743864437E-01 -1.356431654081E-01
H90  9.219436277218E-02  5.482561355628E-02  3.643568345919E-01
H91 -9.219436277218E-02 -4.451743864437E-01  1.356431654081E-01
H92  9.219436277218E-02 -5.482561355628E-02 -3.643568345919E-01
H93  4.624754700132E-02  2.985801116939E-01  2.075017297447E-01
H94 -4.624754700132E-02  2.014198883061E-01 -2.924982702553E-01
H95  4.624754700132E-02 -2.985801116939E-01 -2.075017297447E-01
H96 -4.624754700132E-02 -2.014198883061E-01  2.924982702553E-01
H97 -4.624754700132E-02 -2.985801116939E-01 -2.075017297447E-01
H98  4.624754700132E-02 -2.014198883061E-01  2.924982702553E-01
H99 -4.624754700132E-02  2.985801116939E-01  2.075017297447E-01
H100  4.624754700132E-02  2.014198883061E-01 -2.924982702553E-01
H101  1.313040138761E-01 -3.267033401515E-01 -3.455481409169E-02
H102 -1.313040138761E-01 -1.732966598485E-01  4.654451859083E-01
H103  1.313040138761E-01  3.267033401515E-01  3.455481409169E-02
H104 -1.313040138761E-01  1.732966598485E-01 -4.654451859083E-01
H105 -1.313040138761E-01  3.267033401515E-01  3.455481409169E-02
H106  1.313040138761E-01  1.732966598485E-01 -4.654451859083E-01
H107 -1.313040138761E-01 -3.267033401515E-01 -3.455481409169E-02
H108  1.313040138761E-01 -1.732966598485E-01  4.654451859083E-01
H109  2.183856338946E-01 -3.428664818699E-01  2.161360693767E-02
H110 -2.183856338946E-01 -1.571335181301E-01 -4.783863930623E-01
H111  2.183856338946E-01  3.428664818699E-01 -2.161360693767E-02
H112 -2.183856338946E-01  1.571335181301E-01  4.783863930623E-01
H113 -2.183856338946E-01  3.428664818699E-01 -2.161360693767E-02
H114  2.183856338946E-01  1.571335181301E-01  4.783863930623E-01
H115 -2.183856338946E-01 -3.428664818699E-01  2.161360693767E-02
H116  2.183856338946E-01 -1.571335181301E-01 -4.783863930623E-01
H117  2.454353601104E-01 -1.567434884671E-01  1.582359149441E-01
H118 -2.454353601104E-01 -3.432565115329E-01 -3.417640850559E-01
H119  2.454353601104E-01  1.567434884671E-01 -1.582359149441E-01
H120 -2.454353601104E-01  3.432565115329E-01  3.417640850559E-01
H121 -2.454353601104E-01  1.567434884671E-01 -1.582359149441E-01
H122  2.454353601104E-01  3.432565115329E-01  3.417640850559E-01
H123 -2.454353601104E-01 -1.567434884671E-01  1.582359149441E-01
H124  2.454353601104E-01 -3.432565115329E-01 -3.417640850559E-01
H125  1.837243471709E-01  4.615032253933E-02  2.408822659927E-01
H126 -1.837243471709E-01  4.538496774607E-01 -2.591177340073E-01
H127  1.837243471709E-01 -4.615032253933E-02 -2.408822659927E-01
H128 -1.837243471709E-01 -4.538496774607E-01  2.591177340073E-01
H129 -1.837243471709E-01 -4.615032253933E-02 -2.408822659927E-01
H130  1.837243471709E-01 -4.538496774607E-01  2.591177340073E-01
H131 -1.837243471709E-01  4.615032253933E-02  2.408822659927E-01
H132  1.837243471709E-01  4.538496774607E-01 -2.591177340073E-01
H133  9.644681762971E-02  5.419368550021E-02  1.868257184031E-01
H134 -9.644681762971E-02  4.458063144998E-01 -3.131742815969E-01
H135  9.644681762971E-02 -5.419368550021E-02 -1.868257184031E-01
H136 -9.644681762971E-02 -4.458063144998E-01  3.131742815969E-01
H137 -9.644681762971E-02 -5.419368550021E-02 -1.868257184031E-01
H138  9.644681762971E-02 -4.458063144998E-01  3.131742815969E-01
H139 -9.644681762971E-02  5.419368550021E-02  1.868257184031E-01
H140  9.644681762971E-02  4.458063144998E-01 -3.131742815969E-01


#===END

data_OPT_STEP_13

_symmetry_space_group_name_H-M 'P 1'
_cell_length_a     26.78900000
_cell_length_b      7.17000000
_cell_length_c     14.21100000
_cell_angle_alpha   90.000000
_cell_angle_beta   90.000000
_cell_angle_gamma   90.000000

loop_
_atom_site_label
_atom_site_fract_x
_atom_site_fract_y
_atom_site_fract_z
C1  2.740482548276E-02  5.342260122518E-19 -1.228032611164E-20
C2 -2.740482548276E-02  5.000000000000E-01 -5.000000000000E-01
C3 -2.740482548276E-02 -1.956328785874E-19 -1.228032611164E-20
C4  2.740482548276E-02  5.000000000000E-01 -5.000000000000E-01
C5  5.316599904941E-02 -1.428059093347E-01  4.947274940582E-02
C6 -5.316599904941E-02 -3.571940906653E-01 -4.505272505942E-01
C7  5.316599904941E-02  1.428059093347E-01 -4.947274940582E-02
C8 -5.316599904941E-02  3.571940906653E-01  4.505272505942E-01
C9 -5.316599904941E-02  1.428059093347E-01 -4.947274940582E-02
C10  5.316599904941E-02  3.571940906653E-01  4.505272505942E-01
C11 -5.316599904941E-02 -1.428059093347E-01  4.947274940582E-02
C12  5.316599904941E-02 -3.571940906653E-01 -4.505272505942E-01
C13  2.685788669432E-02 -2.926794644786E-01  8.856090007309E-02
C14 -2.685788669432E-02 -2.073205355214E-01 -4.114390999269E-01
C15  2.685788669432E-02  2.926794644786E-01 -8.856090007309E-02
C16 -2.685788669432E-02  2.073205355214E-01  4.114390999269E-01
C17 -2.685788669432E-02  2.926794644786E-01 -8.856090007309E-02
C18  2.685788669432E-02  2.073205355214E-01  4.114390999269E-01
C19 -2.685788669432E-02 -2.926794644786E-01  8.856090007309E-02
C20  2.685788669432E-02 -2.073205355214E-01 -4.114390999269E-01
C21  5.190509259021E-02 -4.445772541666E-01  1.340935255103E-01
C22 -5.190509259021E-02 -5.542274583341E-02 -3.659064744897E-01
C23  5.190509259021E-02  4.445772541666E-01 -1.340935255103E-01
C24 -5.190509259021E-02  5.542274583341E-02  3.659064744897E-01
C25 -5.190509259021E-02  4.445772541666E-01 -1.340935255103E-01
C26  5.190509259021E-02  5.542274583341E-02  3.659064744897E-01
C27 -5.190509259021E-02 -4.445772541666E-01  1.340935255103E-01
C28  5.190509259021E-02 -5.542274583341E-02 -3.659064744897E-01
C29  2.644562249515E-02  4.123284157525E-01  1.743576038936E-01
C30 -2.644562249515E-02  8.767158424753E-02 -3.256423961064E-01
C31  2.644562249515E-02 -4.123284157525E-01 -1.743576038936E-01
C32 -2.644562249515E-02 -8.767158424753E-02  3.256423961064E-01
C33 -2.644562249515E-02 -4.123284157525E-01 -1.743576038936E-01
C34  2.644562249515E-02 -8.767158424753E-02  3.256423961064E-01
C35 -2.644562249515E-02  4.123284157525E-01  1.743576038936E-01
C36  2.644562249515E-02  8.767158424753E-02 -3.256423961064E-01
C37  1.077066158070E-01 -1.350388657506E-01  7.237860430331E-02
C38 -1.077066158070E-01 -3.649611342494E-01 -4.276213956967E-01
C39  1.077066158070E-01  1.350388657506E-01 -7.237860430331E-02
C40 -1.077066158070E-01  3.649611342494E-01  4.276213956967E-01
C41 -1.077066158070E-01  1.350388657506E-01 -7.237860430331E-02
C42  1.077066158070E-01  3.649611342494E-01  4.276213956967E-01
C43 -1.077066158070E-01 -1.350388657506E-01  7.237860430331E-02
C44  1.077066158070E-01 -3.649611342494E-01 -4.276213956967E-01
C45  1.427104833515E-01 -2.463406074105E-01  2.627812595480E-02
C46 -1.427104833515E-01 -2.536593925895E-01 -4.737218740452E-01
C47  1.427104833515E-01  2.463406074105E-01 -2.627812595480E-02
C48 -1.427104833515E-01  2.536593925895E-01  4.737218740452E-01
C49 -1.427104833515E-01  2.463406074105E-01 -2.627812595480E-02
C50  1.427104833515E-01  2.536593925895E-01  4.737218740452E-01
C51 -1.427104833515E-01 -2.463406074105E-01  2.627812595480E-02
C52  1.427104833515E-01 -2.536593925895E-01 -4.737218740452E-01
C53  1.917782768656E-01 -2.539924645934E-01  5.730788300828E-02
C54 -1.917782768656E-01 -2.460075354066E-01 -4.426921169917E-01
C55  1.917782768656E-01  2.539924645934E-01 -5.730788300828E-02
C56 -1.917782768656E-01  2.460075354066E-01  4.426921169917E-01
C57 -1.917782768656E-01  2.539924645934E-01 -5.730788300828E-02
C58  1.917782768656E-01  2.460075354066E-01  4.426921169917E-01
C59 -1.917782768656E-01 -2.539924645934E-01  5.730788300828E-02
C60  1.917782768656E-01 -2.460075354066E-01 -4.426921169917E-01
C61  2.070949765585E-01 -1.485353817971E-01  1.343200463851E-01
C62 -2.070949765585E-01 -3.514646182029E-01 -3.656799536149E-01
C63  2.070949765585E-01  1.485353817971E-01 -1.343200463851E-01
C64 -2.070949765585E-01  3.514646182029E-01  3.656799536149E-01
C65 -2.070949765585E-01  1.485353817971E-01 -1.343200463851E-01
C66  2.070949765585E-01  3.514646182029E-01  3.656799536149E-01
C67 -2.070949765585E-01 -1.485353817971E-01  1.343200463851E-01
C68  2.070949765585E-01 -3.514646182029E-01 -3.656799536149E-01
C69  1.726698457235E-01 -3.582219916652E-02  1.803903727247E-01
C70 -1.726698457235E-01 -4.641778008335E-01 -3.196096272753E-01
C71  1.726698457235E-01  3.582219916652E-02 -1.803903727247E-01
C72 -1.726698457235E-01  4.641778008335E-01  3.196096272753E-01
C73 -1.726698457235E-01  3.582219916652E-02 -1.803903727247E-01
C74  1.726698457235E-01  4.641778008335E-01  3.196096272753E-01
C75 -1.726698457235E-01 -3.582219916652E-02  1.803903727247E-01
C76  1.726698457235E-01 -4.641778008335E-01 -3.196096272753E-01
C77  1.234109989732E-01 -3.043664071469E-02  1.497394878880E-01
C78 -1.234109989732E-01 -4.695633592853E-01 -3.502605121120E-01
C79  1.234109989732E-01  3.043664071469E-02 -1.497394878880E-01
C80 -1.234109989732E-01  4.695633592853E-01  3.502605121120E-01
C81 -1.234109989732E-01  3.043664071469E-02 -1.497394878880E-01
C82  1.234109989732E-01  4.695633592853E-01  3.502605121120E-01
C83 -1.234109989732E-01 -3.043664071469E-02  1.497394878880E-01
C84  1.234109989732E-01 -4.695633592853E-01 -3.502605121120E-01
H85  9.219146168951E-02 -4.449842581787E-01  1.357139421929E-01
H86 -9.219146168951E-02 -5.501574182132E-02 -3.642860578071E-01
H87  9.219146168951E-02  4.449842581787E-01 -1.357139421929E-01
H88 -9.219146168951E-02  5.501574182132E-02  3.642860578071E-01
H89 -9.219146168951E-02  4.449842581787E-01 -1.357139421929E-01
H90  9.219146168951E-02  5.501574182132E-02  3.642860578071E-01
H91 -9.219146168951E-02 -4.449842581787E-01  1.357139421929E-01
H92  9.219146168951E-02 -5.501574182132E-02 -3.642860578071E-01
H93  4.623391336587E-02  2.991454505332E-01  2.079199671130E-01
H94 -4.623391336587E-02  2.008545494668E-01 -2.920800328870E-01
H95  4.623391336587E-02 -2.991454505332E-01 -2.079199671130E-01
H96 -4.623391336587E-02 -2.008545494668E-01  2.920800328870E-01
H97 -4.623391336587E-02 -2.991454505332E-01 -2.079199671130E-01
H98  4.623391336587E-02 -2.008545494668E-01  2.920800328870E-01
H99 -4.623391336587E-02  2.991454505332E-01  2.079199671130E-01
H100  4.623391336587E-02  2.008545494668E-01 -2.920800328870E-01
H101  1.312039419448E-01 -3.280120959306E-01 -3.393603462301E-02
H102 -1.312039419448E-01 -1.719879040694E-01  4.660639653770E-01
H103  1.312039419448E-01  3.280120959306E-01  3.393603462301E-02
H104 -1.312039419448E-01  1.719879040694E-01 -4.660639653770E-01
H105 -1.312039419448E-01  3.280120959306E-01  3.393603462301E-02
H106  1.312039419448E-01  1.719879040694E-01 -4.660639653770E-01
H107 -1.312039419448E-01 -3.280120959306E-01 -3.393603462301E-02
H108  1.312039419448E-01 -1.719879040694E-01  4.660639653770E-01
H109  2.183621186402E-01 -3.427391637640E-01  2.161264083245E-02
H110 -2.183621186402E-01 -1.572608362360E-01 -4.783873591676E-01
H111  2.183621186402E-01  3.427391637640E-01 -2.161264083245E-02
H112 -2.183621186402E-01  1.572608362360E-01  4.783873591676E-01
H113 -2.183621186402E-01  3.427391637640E-01 -2.161264083245E-02
H114  2.183621186402E-01  1.572608362360E-01  4.783873591676E-01
H115 -2.183621186402E-01 -3.427391637640E-01  2.161264083245E-02
H116  2.183621186402E-01 -1.572608362360E-01 -4.783873591676E-01
H117  2.454900682660E-01 -1.557479095620E-01  1.580255780517E-01
H118 -2.454900682660E-01 -3.442520904380E-01 -3.419744219483E-01
H119  2.454900682660E-01  1.557479095620E-01 -1.580255780517E-01
H120 -2.454900682660E-01  3.442520904380E-01  3.419744219483E-01
H121 -2.454900682660E-01  1.557479095620E-01 -1.580255780517E-01
H122  2.454900682660E-01  3.442520904380E-01  3.419744219483E-01
H123 -2.454900682660E-01 -1.557479095620E-01  1.580255780517E-01
H124  2.454900682660E-01 -3.442520904380E-01 -3.419744219483E-01
H125  1.838400935100E-01  4.773098174958E-02  2.403387055380E-01
H126 -1.838400935100E-01  4.522690182504E-01 -2.596612944620E-01
H127  1.838400935100E-01 -4.773098174958E-02 -2.403387055380E-01
H128 -1.838400935100E-01 -4.522690182504E-01  2.596612944620E-01
H129 -1.838400935100E-01 -4.773098174958E-02 -2.403387055380E-01
H130  1.838400935100E-01 -4.522690182504E-01  2.596612944620E-01
H131 -1.838400935100E-01  4.773098174958E-02  2.403387055380E-01
H132  1.838400935100E-01  4.522690182504E-01 -2.596612944620E-01
H133  9.648890803469E-02  5.455780389846E-02  1.868262964398E-01
H134 -9.648890803469E-02  4.454421961015E-01 -3.131737035602E-01
H135  9.648890803469E-02 -5.455780389846E-02 -1.868262964398E-01
H136 -9.648890803469E-02 -4.454421961015E-01  3.131737035602E-01
H137 -9.648890803469E-02 -5.455780389846E-02 -1.868262964398E-01
H138  9.648890803469E-02 -4.454421961015E-01  3.131737035602E-01
H139 -9.648890803469E-02  5.455780389846E-02  1.868262964398E-01
H140  9.648890803469E-02  4.454421961015E-01 -3.131737035602E-01


#===END

data_OPT_STEP_14

_symmetry_space_group_name_H-M 'P 1'
_cell_length_a     26.78900000
_cell_length_b      7.17000000
_cell_length_c     14.21100000
_cell_angle_alpha   90.000000
_cell_angle_beta   90.000000
_cell_angle_gamma   90.000000

loop_
_atom_site_label
_atom_site_fract_x
_atom_site_fract_y
_atom_site_fract_z
C1  2.742208655144E-02  5.269848944624E-19 -1.199830077645E-20
C2 -2.742208655144E-02  5.000000000000E-01 -5.000000000000E-01
C3 -2.742208655144E-02 -2.051369719603E-19 -1.199830077645E-20
C4  2.742208655144E-02  5.000000000000E-01 -5.000000000000E-01
C5  5.318260594393E-02 -1.432938068989E-01  4.924449905046E-02
C6 -5.318260594393E-02 -3.567061931011E-01 -4.507555009495E-01
C7  5.318260594393E-02  1.432938068989E-01 -4.924449905046E-02
C8 -5.318260594393E-02  3.567061931011E-01  4.507555009495E-01
C9 -5.318260594393E-02  1.432938068989E-01 -4.924449905046E-02
C10  5.318260594393E-02  3.567061931011E-01  4.507555009495E-01
C11 -5.318260594393E-02 -1.432938068989E-01  4.924449905046E-02
C12  5.318260594393E-02 -3.567061931011E-01 -4.507555009495E-01
C13  2.685246190422E-02 -2.931451046737E-01  8.821545750626E-02
C14 -2.685246190422E-02 -2.068548953263E-01 -4.117845424937E-01
C15  2.685246190422E-02  2.931451046737E-01 -8.821545750626E-02
C16 -2.685246190422E-02  2.068548953263E-01  4.117845424937E-01
C17 -2.685246190422E-02  2.931451046737E-01 -8.821545750626E-02
C18  2.685246190422E-02  2.068548953263E-01  4.117845424937E-01
C19 -2.685246190422E-02 -2.931451046737E-01  8.821545750626E-02
C20  2.685246190422E-02 -2.068548953263E-01 -4.117845424937E-01
C21  5.190640678910E-02 -4.448014387829E-01  1.339223643573E-01
C22 -5.190640678910E-02 -5.519856121705E-02 -3.660776356427E-01
C23  5.190640678910E-02  4.448014387829E-01 -1.339223643573E-01
C24 -5.190640678910E-02  5.519856121705E-02  3.660776356427E-01
C25 -5.190640678910E-02  4.448014387829E-01 -1.339223643573E-01
C26  5.190640678910E-02  5.519856121705E-02  3.660776356427E-01
C27 -5.190640678910E-02 -4.448014387829E-01  1.339223643573E-01
C28  5.190640678910E-02 -5.519856121705E-02 -3.660776356427E-01
C29  2.644698684327E-02  4.126333383107E-01  1.746333434734E-01
C30 -2.644698684327E-02  8.736666168931E-02 -3.253666565266E-01
C31  2.644698684327E-02 -4.126333383107E-01 -1.746333434734E-01
C32 -2.644698684327E-02 -8.736666168931E-02  3.253666565266E-01
C33 -2.644698684327E-02 -4.126333383107E-01 -1.746333434734E-01
C34  2.644698684327E-02 -8.736666168931E-02  3.253666565266E-01
C35 -2.644698684327E-02  4.126333383107E-01  1.746333434734E-01
C36  2.644698684327E-02  8.736666168931E-02 -3.253666565266E-01
C37  1.076757565287E-01 -1.357568259290E-01  7.260410908654E-02
C38 -1.076757565287E-01 -3.642431740710E-01 -4.273958909135E-01
C39  1.076757565287E-01  1.357568259290E-01 -7.260410908654E-02
C40 -1.076757565287E-01  3.642431740710E-01  4.273958909135E-01
C41 -1.076757565287E-01  1.357568259290E-01 -7.260410908654E-02
C42  1.076757565287E-01  3.642431740710E-01  4.273958909135E-01
C43 -1.076757565287E-01 -1.357568259290E-01  7.260410908654E-02
C44  1.076757565287E-01 -3.642431740710E-01 -4.273958909135E-01
C45  1.427180941868E-01 -2.475097348504E-01  2.686167376186E-02
C46 -1.427180941868E-01 -2.524902651496E-01 -4.731383262381E-01
C47  1.427180941868E-01  2.475097348504E-01 -2.686167376186E-02
C48 -1.427180941868E-01  2.524902651496E-01  4.731383262381E-01
C49 -1.427180941868E-01  2.475097348504E-01 -2.686167376186E-02
C50  1.427180941868E-01  2.524902651496E-01  4.731383262381E-01
C51 -1.427180941868E-01 -2.475097348504E-01  2.686167376186E-02
C52  1.427180941868E-01 -2.524902651496E-01 -4.731383262381E-01
C53  1.918076260051E-01 -2.545207977412E-01  5.779973509902E-02
C54 -1.918076260051E-01 -2.454792022588E-01 -4.422002649010E-01
C55  1.918076260051E-01  2.545207977412E-01 -5.779973509902E-02
C56 -1.918076260051E-01  2.454792022588E-01  4.422002649010E-01
C57 -1.918076260051E-01  2.545207977412E-01 -5.779973509902E-02
C58  1.918076260051E-01  2.454792022588E-01  4.422002649010E-01
C59 -1.918076260051E-01 -2.545207977412E-01  5.779973509902E-02
C60  1.918076260051E-01 -2.454792022588E-01 -4.422002649010E-01
C61  2.071479450212E-01 -1.473914804049E-01  1.341605679315E-01
C62 -2.071479450212E-01 -3.526085195951E-01 -3.658394320685E-01
C63  2.071479450212E-01  1.473914804049E-01 -1.341605679315E-01
C64 -2.071479450212E-01  3.526085195951E-01  3.658394320685E-01
C65 -2.071479450212E-01  1.473914804049E-01 -1.341605679315E-01
C66  2.071479450212E-01  3.526085195951E-01  3.658394320685E-01
C67 -2.071479450212E-01 -1.473914804049E-01  1.341605679315E-01
C68  2.071479450212E-01 -3.526085195951E-01 -3.658394320685E-01
C69  1.726887343189E-01 -3.419229276775E-02  1.798641656830E-01
C70 -1.726887343189E-01 -4.658077072322E-01 -3.201358343170E-01
C71  1.726887343189E-01  3.419229276775E-02 -1.798641656830E-01
C72 -1.726887343189E-01  4.658077072322E-01  3.201358343170E-01
C73 -1.726887343189E-01  3.419229276775E-02 -1.798641656830E-01
C74  1.726887343189E-01  4.658077072322E-01  3.201358343170E-01
C75 -1.726887343189E-01 -3.419229276775E-02  1.798641656830E-01
C76  1.726887343189E-01 -4.658077072322E-01 -3.201358343170E-01
C77  1.233527375998E-01 -3.018794615274E-02  1.496251675720E-01
C78 -1.233527375998E-01 -4.698120538473E-01 -3.503748324280E-01
C79  1.233527375998E-01  3.018794615274E-02 -1.496251675720E-01
C80 -1.233527375998E-01  4.698120538473E-01  3.503748324280E-01
C81 -1.233527375998E-01  3.018794615274E-02 -1.496251675720E-01
C82  1.233527375998E-01  4.698120538473E-01  3.503748324280E-01
C83 -1.233527375998E-01 -3.018794615274E-02  1.496251675720E-01
C84  1.233527375998E-01 -4.698120538473E-01 -3.503748324280E-01
H85  9.218824173953E-02 -4.447964630620E-01  1.358055536180E-01
H86 -9.218824173953E-02 -5.520353693801E-02 -3.641944463820E-01
H87  9.218824173953E-02  4.447964630620E-01 -1.358055536180E-01
H88 -9.218824173953E-02  5.520353693801E-02  3.641944463820E-01
H89 -9.218824173953E-02  4.447964630620E-01 -1.358055536180E-01
H90  9.218824173953E-02  5.520353693801E-02  3.641944463820E-01
H91 -9.218824173953E-02 -4.447964630620E-01  1.358055536180E-01
H92  9.218824173953E-02 -5.520353693801E-02 -3.641944463820E-01
H93  4.622529897049E-02  2.998052981844E-01  2.084988364770E-01
H94 -4.622529897049E-02  2.001947018156E-01 -2.915011635230E-01
H95  4.622529897049E-02 -2.998052981844E-01 -2.084988364770E-01
H96 -4.622529897049E-02 -2.001947018156E-01  2.915011635230E-01
H97 -4.622529897049E-02 -2.998052981844E-01 -2.084988364770E-01
H98  4.622529897049E-02 -2.001947018156E-01  2.915011635230E-01
H99 -4.622529897049E-02  2.998052981844E-01  2.084988364770E-01
H100  4.622529897049E-02  2.001947018156E-01 -2.915011635230E-01
H101  1.311889237539E-01 -3.302189606843E-01 -3.297124488390E-02
H102 -1.311889237539E-01 -1.697810393157E-01  4.670287551161E-01
H103  1.311889237539E-01  3.302189606843E-01  3.297124488390E-02
H104 -1.311889237539E-01  1.697810393157E-01 -4.670287551161E-01
H105 -1.311889237539E-01  3.302189606843E-01  3.297124488390E-02
H106  1.311889237539E-01  1.697810393157E-01 -4.670287551161E-01
H107 -1.311889237539E-01 -3.302189606843E-01 -3.297124488390E-02
H108  1.311889237539E-01 -1.697810393157E-01  4.670287551161E-01
H109  2.184244785812E-01 -3.431928700504E-01  2.211787428188E-02
H110 -2.184244785812E-01 -1.568071299496E-01 -4.778821257181E-01
H111  2.184244785812E-01  3.431928700504E-01 -2.211787428188E-02
H112 -2.184244785812E-01  1.568071299496E-01  4.778821257181E-01
H113 -2.184244785812E-01  3.431928700504E-01 -2.211787428188E-02
H114  2.184244785812E-01  1.568071299496E-01  4.778821257181E-01
H115 -2.184244785812E-01 -3.431928700504E-01  2.211787428188E-02
H116  2.184244785812E-01 -1.568071299496E-01 -4.778821257181E-01
H117  2.456082897281E-01 -1.533463567730E-01  1.575337398002E-01
H118 -2.456082897281E-01 -3.466536432270E-01 -3.424662601998E-01
H119  2.456082897281E-01  1.533463567730E-01 -1.575337398002E-01
H120 -2.456082897281E-01  3.466536432270E-01  3.424662601998E-01
H121 -2.456082897281E-01  1.533463567730E-01 -1.575337398002E-01
H122  2.456082897281E-01  3.466536432270E-01  3.424662601998E-01
H123 -2.456082897281E-01 -1.533463567730E-01  1.575337398002E-01
H124  2.456082897281E-01 -3.466536432270E-01 -3.424662601998E-01
H125  1.838908165727E-01  5.056677081520E-02  2.393527610523E-01
H126 -1.838908165727E-01  4.494332291848E-01 -2.606472389477E-01
H127  1.838908165727E-01 -5.056677081520E-02 -2.393527610523E-01
H128 -1.838908165727E-01 -4.494332291848E-01  2.606472389477E-01
H129 -1.838908165727E-01 -5.056677081520E-02 -2.393527610523E-01
H130  1.838908165727E-01 -4.494332291848E-01  2.606472389477E-01
H131 -1.838908165727E-01  5.056677081520E-02  2.393527610523E-01
H132  1.838908165727E-01  4.494332291848E-01 -2.606472389477E-01
H133  9.643104709422E-02  5.497205665799E-02  1.866068408409E-01
H134 -9.643104709422E-02  4.450279433420E-01 -3.133931591591E-01
H135  9.643104709422E-02 -5.497205665799E-02 -1.866068408409E-01
H136 -9.643104709422E-02 -4.450279433420E-01  3.133931591591E-01
H137 -9.643104709422E-02 -5.497205665799E-02 -1.866068408409E-01
H138  9.643104709422E-02 -4.450279433420E-01  3.133931591591E-01
H139 -9.643104709422E-02  5.497205665799E-02  1.866068408409E-01
H140  9.643104709422E-02  4.450279433420E-01 -3.133931591591E-01


#===END

data_OPT_STEP_15

_symmetry_space_group_name_H-M 'P 1'
_cell_length_a     26.78900000
_cell_length_b      7.17000000
_cell_length_c     14.21100000
_cell_angle_alpha   90.000000
_cell_angle_beta   90.000000
_cell_angle_gamma   90.000000

loop_
_atom_site_label
_atom_site_fract_x
_atom_site_fract_y
_atom_site_fract_z
C1  2.742097432810E-02  4.915534786695E-19 -1.657916204187E-20
C2 -2.742097432810E-02  5.000000000000E-01 -5.000000000000E-01
C3 -2.742097432810E-02 -2.404225720850E-19 -1.657916204187E-20
C4  2.742097432810E-02  5.000000000000E-01 -5.000000000000E-01
C5  5.317384938458E-02 -1.427738968855E-01  4.967941597284E-02
C6 -5.317384938458E-02 -3.572261031145E-01 -4.503205840272E-01
C7  5.317384938458E-02  1.427738968855E-01 -4.967941597284E-02
C8 -5.317384938458E-02  3.572261031145E-01  4.503205840272E-01
C9 -5.317384938458E-02  1.427738968855E-01 -4.967941597284E-02
C10  5.317384938458E-02  3.572261031145E-01  4.503205840272E-01
C11 -5.317384938458E-02 -1.427738968855E-01  4.967941597284E-02
C12  5.317384938458E-02 -3.572261031145E-01 -4.503205840272E-01
C13  2.685022833981E-02 -2.926148857319E-01  8.867533928495E-02
C14 -2.685022833981E-02 -2.073851142681E-01 -4.113246607150E-01
C15  2.685022833981E-02  2.926148857319E-01 -8.867533928495E-02
C16 -2.685022833981E-02  2.073851142681E-01  4.113246607150E-01
C17 -2.685022833981E-02  2.926148857319E-01 -8.867533928495E-02
C18  2.685022833981E-02  2.073851142681E-01  4.113246607150E-01
C19 -2.685022833981E-02 -2.926148857319E-01  8.867533928495E-02
C20  2.685022833981E-02 -2.073851142681E-01 -4.113246607150E-01
C21  5.190365049175E-02 -4.444151251691E-01  1.342821885482E-01
C22 -5.190365049175E-02 -5.558487483093E-02 -3.657178114518E-01
C23  5.190365049175E-02  4.444151251691E-01 -1.342821885482E-01
C24 -5.190365049175E-02  5.558487483093E-02  3.657178114518E-01
C25 -5.190365049175E-02  4.444151251691E-01 -1.342821885482E-01
C26  5.190365049175E-02  5.558487483093E-02  3.657178114518E-01
C27 -5.190365049175E-02 -4.444151251691E-01  1.342821885482E-01
C28  5.190365049175E-02 -5.558487483093E-02 -3.657178114518E-01
C29  2.644791684487E-02  4.128695310993E-01  1.748973792630E-01
C30 -2.644791684487E-02  8.713046890069E-02 -3.251026207370E-01
C31  2.644791684487E-02 -4.128695310993E-01 -1.748973792630E-01
C32 -2.644791684487E-02 -8.713046890069E-02  3.251026207370E-01
C33 -2.644791684487E-02 -4.128695310993E-01 -1.748973792630E-01
C34  2.644791684487E-02 -8.713046890069E-02  3.251026207370E-01
C35 -2.644791684487E-02  4.128695310993E-01  1.748973792630E-01
C36  2.644791684487E-02  8.713046890069E-02 -3.251026207370E-01
C37  1.076840916471E-01 -1.350948375034E-01  7.289445863221E-02
C38 -1.076840916471E-01 -3.649051624966E-01 -4.271055413678E-01
C39  1.076840916471E-01  1.350948375034E-01 -7.289445863221E-02
C40 -1.076840916471E-01  3.649051624966E-01  4.271055413678E-01
C41 -1.076840916471E-01  1.350948375034E-01 -7.289445863221E-02
C42  1.076840916471E-01  3.649051624966E-01  4.271055413678E-01
C43 -1.076840916471E-01 -1.350948375034E-01  7.289445863221E-02
C44  1.076840916471E-01 -3.649051624966E-01 -4.271055413678E-01
C45  1.426598489899E-01 -2.477825837848E-01  2.753133904416E-02
C46 -1.426598489899E-01 -2.522174162152E-01 -4.724686609558E-01
C47  1.426598489899E-01  2.477825837848E-01 -2.753133904416E-02
C48 -1.426598489899E-01  2.522174162152E-01  4.724686609558E-01
C49 -1.426598489899E-01  2.477825837848E-01 -2.753133904416E-02
C50  1.426598489899E-01  2.522174162152E-01  4.724686609558E-01
C51 -1.426598489899E-01 -2.477825837848E-01  2.753133904416E-02
C52  1.426598489899E-01 -2.522174162152E-01 -4.724686609558E-01
C53  1.918338749601E-01 -2.539668837184E-01  5.810294929616E-02
C54 -1.918338749601E-01 -2.460331162816E-01 -4.418970507038E-01
C55  1.918338749601E-01  2.539668837184E-01 -5.810294929616E-02
C56 -1.918338749601E-01  2.460331162816E-01  4.418970507038E-01
C57 -1.918338749601E-01  2.539668837184E-01 -5.810294929616E-02
C58  1.918338749601E-01  2.460331162816E-01  4.418970507038E-01
C59 -1.918338749601E-01 -2.539668837184E-01  5.810294929616E-02
C60  1.918338749601E-01 -2.460331162816E-01 -4.418970507038E-01
C61  2.072232448452E-01 -1.462316726660E-01  1.342437109853E-01
C62 -2.072232448452E-01 -3.537683273340E-01 -3.657562890147E-01
C63  2.072232448452E-01  1.462316726660E-01 -1.342437109853E-01
C64 -2.072232448452E-01  3.537683273340E-01  3.657562890147E-01
C65 -2.072232448452E-01  1.462316726660E-01 -1.342437109853E-01
C66  2.072232448452E-01  3.537683273340E-01  3.657562890147E-01
C67 -2.072232448452E-01 -1.462316726660E-01  1.342437109853E-01
C68  2.072232448452E-01 -3.537683273340E-01 -3.657562890147E-01
C69  1.727967582401E-01 -3.246203497076E-02  1.796960513048E-01
C70 -1.727967582401E-01 -4.675379650292E-01 -3.203039486952E-01
C71  1.727967582401E-01  3.246203497076E-02 -1.796960513048E-01
C72 -1.727967582401E-01  4.675379650292E-01  3.203039486952E-01
C73 -1.727967582401E-01  3.246203497076E-02 -1.796960513048E-01
C74  1.727967582401E-01  4.675379650292E-01  3.203039486952E-01
C75 -1.727967582401E-01 -3.246203497076E-02  1.796960513048E-01
C76  1.727967582401E-01 -4.675379650292E-01 -3.203039486952E-01
C77  1.234771649695E-01 -2.817450689454E-02  1.493390371610E-01
C78 -1.234771649695E-01 -4.718254931055E-01 -3.506609628390E-01
C79  1.234771649695E-01  2.817450689454E-02 -1.493390371610E-01
C80 -1.234771649695E-01  4.718254931055E-01  3.506609628390E-01
C81 -1.234771649695E-01  2.817450689454E-02 -1.493390371610E-01
C82  1.234771649695E-01  4.718254931055E-01  3.506609628390E-01
C83 -1.234771649695E-01 -2.817450689454E-02  1.493390371610E-01
C84  1.234771649695E-01 -4.718254931055E-01 -3.506609628390E-01
H85  9.217760360673E-02 -4.443517050392E-01  1.361874295809E-01
H86 -9.217760360673E-02 -5.564829496076E-02 -3.638125704191E-01
H87  9.217760360673E-02  4.443517050392E-01 -1.361874295809E-01
H88 -9.217760360673E-02  5.564829496076E-02  3.638125704191E-01
H89 -9.217760360673E-02  4.443517050392E-01 -1.361874295809E-01
H90  9.217760360673E-02  5.564829496076E-02  3.638125704191E-01
H91 -9.217760360673E-02 -4.443517050392E-01  1.361874295809E-01
H92  9.217760360673E-02 -5.564829496076E-02 -3.638125704191E-01
H93  4.622368997063E-02  3.001511441438E-01  2.089155977085E-01
H94 -4.622368997063E-02  1.998488558562E-01 -2.910844022915E-01
H95  4.622368997063E-02 -3.001511441438E-01 -2.089155977085E-01
H96 -4.622368997063E-02 -1.998488558562E-01  2.910844022915E-01
H97 -4.622368997063E-02 -3.001511441438E-01 -2.089155977085E-01
H98  4.622368997063E-02 -1.998488558562E-01  2.910844022915E-01
H99 -4.622368997063E-02  3.001511441438E-01  2.089155977085E-01
H100  4.622368997063E-02  1.998488558562E-01 -2.910844022915E-01
H101  1.310416803725E-01 -3.314995321829E-01 -3.188597150747E-02
H102 -1.310416803725E-01 -1.685004678171E-01  4.681140284925E-01
H103  1.310416803725E-01  3.314995321829E-01  3.188597150747E-02
H104 -1.310416803725E-01  1.685004678171E-01 -4.681140284925E-01
H105 -1.310416803725E-01  3.314995321829E-01  3.188597150747E-02
H106  1.310416803725E-01  1.685004678171E-01 -4.681140284925E-01
H107 -1.310416803725E-01 -3.314995321829E-01 -3.188597150747E-02
H108  1.310416803725E-01 -1.685004678171E-01  4.681140284925E-01
H109  2.184016335864E-01 -3.430854776951E-01  2.257185536054E-02
H110 -2.184016335864E-01 -1.569145223049E-01 -4.774281446395E-01
H111  2.184016335864E-01  3.430854776951E-01 -2.257185536054E-02
H112 -2.184016335864E-01  1.569145223049E-01  4.774281446395E-01
H113 -2.184016335864E-01  3.430854776951E-01 -2.257185536054E-02
H114  2.184016335864E-01  1.569145223049E-01  4.774281446395E-01
H115 -2.184016335864E-01 -3.430854776951E-01  2.257185536054E-02
H116  2.184016335864E-01 -1.569145223049E-01 -4.774281446395E-01
H117  2.457095817109E-01 -1.518259352945E-01  1.575557361758E-01
H118 -2.457095817109E-01 -3.481740647055E-01 -3.424442638242E-01
H119  2.457095817109E-01  1.518259352945E-01 -1.575557361758E-01
H120 -2.457095817109E-01  3.481740647055E-01  3.424442638242E-01
H121 -2.457095817109E-01  1.518259352945E-01 -1.575557361758E-01
H122  2.457095817109E-01  3.481740647055E-01  3.424442638242E-01
H123 -2.457095817109E-01 -1.518259352945E-01  1.575557361758E-01
H124  2.457095817109E-01 -3.481740647055E-01 -3.424442638242E-01
H125  1.840694567800E-01  5.321518081480E-02  2.388033049345E-01
H126 -1.840694567800E-01  4.467848191852E-01 -2.611966950655E-01
H127  1.840694567800E-01 -5.321518081480E-02 -2.388033049345E-01
H128 -1.840694567800E-01 -4.467848191852E-01  2.611966950655E-01
H129 -1.840694567800E-01 -5.321518081480E-02 -2.388033049345E-01
H130  1.840694567800E-01 -4.467848191852E-01  2.611966950655E-01
H131 -1.840694567800E-01  5.321518081480E-02  2.388033049345E-01
H132  1.840694567800E-01  4.467848191852E-01 -2.611966950655E-01
H133  9.661165500622E-02  5.735707462071E-02  1.862223179573E-01
H134 -9.661165500622E-02  4.426429253793E-01 -3.137776820427E-01
H135  9.661165500622E-02 -5.735707462071E-02 -1.862223179573E-01
H136 -9.661165500622E-02 -4.426429253793E-01  3.137776820427E-01
H137 -9.661165500622E-02 -5.735707462071E-02 -1.862223179573E-01
H138  9.661165500622E-02 -4.426429253793E-01  3.137776820427E-01
H139 -9.661165500622E-02  5.735707462071E-02  1.862223179573E-01
H140  9.661165500622E-02  4.426429253793E-01 -3.137776820427E-01


#===END

data_OPT_STEP_16

_symmetry_space_group_name_H-M 'P 1'
_cell_length_a     26.78900000
_cell_length_b      7.17000000
_cell_length_c     14.21100000
_cell_angle_alpha   90.000000
_cell_angle_beta   90.000000
_cell_angle_gamma   90.000000

loop_
_atom_site_label
_atom_site_fract_x
_atom_site_fract_y
_atom_site_fract_z
C1  2.740983069557E-02  4.478560481677E-19 -1.734463213732E-20
C2 -2.740983069557E-02  5.000000000000E-01 -5.000000000000E-01
C3 -2.740983069557E-02 -2.826590404184E-19 -1.734463213732E-20
C4  2.740983069557E-02  5.000000000000E-01 -5.000000000000E-01
C5  5.317414932236E-02 -1.426360578175E-01  4.972041972785E-02
C6 -5.317414932236E-02 -3.573639421825E-01 -4.502795802722E-01
C7  5.317414932236E-02  1.426360578175E-01 -4.972041972785E-02
C8 -5.317414932236E-02  3.573639421825E-01  4.502795802722E-01
C9 -5.317414932236E-02  1.426360578175E-01 -4.972041972785E-02
C10  5.317414932236E-02  3.573639421825E-01  4.502795802722E-01
C11 -5.317414932236E-02 -1.426360578175E-01  4.972041972785E-02
C12  5.317414932236E-02 -3.573639421825E-01 -4.502795802722E-01
C13  2.685423056010E-02 -2.926094521714E-01  8.864428736487E-02
C14 -2.685423056010E-02 -2.073905478286E-01 -4.113557126351E-01
C15  2.685423056010E-02  2.926094521714E-01 -8.864428736487E-02
C16 -2.685423056010E-02  2.073905478286E-01  4.113557126351E-01
C17 -2.685423056010E-02  2.926094521714E-01 -8.864428736487E-02
C18  2.685423056010E-02  2.073905478286E-01  4.113557126351E-01
C19 -2.685423056010E-02 -2.926094521714E-01  8.864428736487E-02
C20  2.685423056010E-02 -2.073905478286E-01 -4.113557126351E-01
C21  5.189526042610E-02 -4.443466030341E-01  1.343758578506E-01
C22 -5.189526042610E-02 -5.565339696587E-02 -3.656241421494E-01
C23  5.189526042610E-02  4.443466030341E-01 -1.343758578506E-01
C24 -5.189526042610E-02  5.565339696587E-02  3.656241421494E-01
C25 -5.189526042610E-02  4.443466030341E-01 -1.343758578506E-01
C26  5.189526042610E-02  5.565339696587E-02  3.656241421494E-01
C27 -5.189526042610E-02 -4.443466030341E-01  1.343758578506E-01
C28  5.189526042610E-02 -5.565339696587E-02 -3.656241421494E-01
C29  2.644638268184E-02  4.126986125202E-01  1.748018077494E-01
C30 -2.644638268184E-02  8.730138747977E-02 -3.251981922506E-01
C31  2.644638268184E-02 -4.126986125202E-01 -1.748018077494E-01
C32 -2.644638268184E-02 -8.730138747977E-02  3.251981922506E-01
C33 -2.644638268184E-02 -4.126986125202E-01 -1.748018077494E-01
C34  2.644638268184E-02 -8.730138747977E-02  3.251981922506E-01
C35 -2.644638268184E-02  4.126986125202E-01  1.748018077494E-01
C36  2.644638268184E-02  8.730138747977E-02 -3.251981922506E-01
C37  1.076730472479E-01 -1.342199232207E-01  7.292291518137E-02
C38 -1.076730472479E-01 -3.657800767793E-01 -4.270770848186E-01
C39  1.076730472479E-01  1.342199232207E-01 -7.292291518137E-02
C40 -1.076730472479E-01  3.657800767793E-01  4.270770848186E-01
C41 -1.076730472479E-01  1.342199232207E-01 -7.292291518137E-02
C42  1.076730472479E-01  3.657800767793E-01  4.270770848186E-01
C43 -1.076730472479E-01 -1.342199232207E-01  7.292291518137E-02
C44  1.076730472479E-01 -3.657800767793E-01 -4.270770848186E-01
C45  1.426939731656E-01 -2.471305142774E-01  2.778503029282E-02
C46 -1.426939731656E-01 -2.528694857226E-01 -4.722149697072E-01
C47  1.426939731656E-01  2.471305142774E-01 -2.778503029282E-02
C48 -1.426939731656E-01  2.528694857226E-01  4.722149697072E-01
C49 -1.426939731656E-01  2.471305142774E-01 -2.778503029282E-02
C50  1.426939731656E-01  2.528694857226E-01  4.722149697072E-01
C51 -1.426939731656E-01 -2.471305142774E-01  2.778503029282E-02
C52  1.426939731656E-01 -2.528694857226E-01 -4.722149697072E-01
C53  1.918759237062E-01 -2.529326207757E-01  5.842766200138E-02
C54 -1.918759237062E-01 -2.470673792243E-01 -4.415723379986E-01
C55  1.918759237062E-01  2.529326207757E-01 -5.842766200138E-02
C56 -1.918759237062E-01  2.470673792243E-01  4.415723379986E-01
C57 -1.918759237062E-01  2.529326207757E-01 -5.842766200138E-02
C58  1.918759237062E-01  2.470673792243E-01  4.415723379986E-01
C59 -1.918759237062E-01 -2.529326207757E-01  5.842766200138E-02
C60  1.918759237062E-01 -2.470673792243E-01 -4.415723379986E-01
C61  2.072894027448E-01 -1.438491625335E-01  1.341171429310E-01
C62 -2.072894027448E-01 -3.561508374665E-01 -3.658828570690E-01
C63  2.072894027448E-01  1.438491625335E-01 -1.341171429310E-01
C64 -2.072894027448E-01  3.561508374665E-01  3.658828570690E-01
C65 -2.072894027448E-01  1.438491625335E-01 -1.341171429310E-01
C66  2.072894027448E-01  3.561508374665E-01  3.658828570690E-01
C67 -2.072894027448E-01 -1.438491625335E-01  1.341171429310E-01
C68  2.072894027448E-01 -3.561508374665E-01 -3.658828570690E-01
C69  1.727910302132E-01 -3.019980461525E-02  1.794615719009E-01
C70 -1.727910302132E-01 -4.698001953848E-01 -3.205384280991E-01
C71  1.727910302132E-01  3.019980461525E-02 -1.794615719009E-01
C72 -1.727910302132E-01  4.698001953848E-01  3.205384280991E-01
C73 -1.727910302132E-01  3.019980461525E-02 -1.794615719009E-01
C74  1.727910302132E-01  4.698001953848E-01  3.205384280991E-01
C75 -1.727910302132E-01 -3.019980461525E-02  1.794615719009E-01
C76  1.727910302132E-01 -4.698001953848E-01 -3.205384280991E-01
C77  1.234273005064E-01 -2.689509864180E-02  1.492991879667E-01
C78 -1.234273005064E-01 -4.731049013582E-01 -3.507008120333E-01
C79  1.234273005064E-01  2.689509864180E-02 -1.492991879667E-01
C80 -1.234273005064E-01  4.731049013582E-01  3.507008120333E-01
C81 -1.234273005064E-01  2.689509864180E-02 -1.492991879667E-01
C82  1.234273005064E-01  4.731049013582E-01  3.507008120333E-01
C83 -1.234273005064E-01 -2.689509864180E-02  1.492991879667E-01
C84  1.234273005064E-01 -4.731049013582E-01 -3.507008120333E-01
H85  9.215398281770E-02 -4.441016118856E-01  1.364967953577E-01
H86 -9.215398281770E-02 -5.589838811436E-02 -3.635032046423E-01
H87  9.215398281770E-02  4.441016118856E-01 -1.364967953577E-01
H88 -9.215398281770E-02  5.589838811436E-02  3.635032046423E-01
H89 -9.215398281770E-02  4.441016118856E-01 -1.364967953577E-01
H90  9.215398281770E-02  5.589838811436E-02  3.635032046423E-01
H91 -9.215398281770E-02 -4.441016118856E-01  1.364967953577E-01
H92  9.215398281770E-02 -5.589838811436E-02 -3.635032046423E-01
H93  4.622134946141E-02  2.996896552271E-01  2.086688100243E-01
H94 -4.622134946141E-02  2.003103447729E-01 -2.913311899757E-01
H95  4.622134946141E-02 -2.996896552271E-01 -2.086688100243E-01
H96 -4.622134946141E-02 -2.003103447729E-01  2.913311899757E-01
H97 -4.622134946141E-02 -2.996896552271E-01 -2.086688100243E-01
H98  4.622134946141E-02 -2.003103447729E-01  2.913311899757E-01
H99 -4.622134946141E-02  2.996896552271E-01  2.086688100243E-01
H100  4.622134946141E-02  2.003103447729E-01 -2.913311899757E-01
H101  1.310952357512E-01 -3.313423439621E-01 -3.149532874478E-02
H102 -1.310952357512E-01 -1.686576560379E-01  4.685046712552E-01
H103  1.310952357512E-01  3.313423439621E-01  3.149532874478E-02
H104 -1.310952357512E-01  1.686576560379E-01 -4.685046712552E-01
H105 -1.310952357512E-01  3.313423439621E-01  3.149532874478E-02
H106  1.310952357512E-01  1.686576560379E-01 -4.685046712552E-01
H107 -1.310952357512E-01 -3.313423439621E-01 -3.149532874478E-02
H108  1.310952357512E-01 -1.686576560379E-01  4.685046712552E-01
H109  2.183960559602E-01 -3.429337735006E-01  2.334174759892E-02
H110 -2.183960559602E-01 -1.570662264994E-01 -4.766582524011E-01
H111  2.183960559602E-01  3.429337735006E-01 -2.334174759892E-02
H112 -2.183960559602E-01  1.570662264994E-01  4.766582524011E-01
H113 -2.183960559602E-01  3.429337735006E-01 -2.334174759892E-02
H114  2.183960559602E-01  1.570662264994E-01  4.766582524011E-01
H115 -2.183960559602E-01 -3.429337735006E-01  2.334174759892E-02
H116  2.183960559602E-01 -1.570662264994E-01 -4.766582524011E-01
H117  2.457865807465E-01 -1.489283884921E-01  1.575230615744E-01
H118 -2.457865807465E-01 -3.510716115079E-01 -3.424769384256E-01
H119  2.457865807465E-01  1.489283884921E-01 -1.575230615744E-01
H120 -2.457865807465E-01  3.510716115079E-01  3.424769384256E-01
H121 -2.457865807465E-01  1.489283884921E-01 -1.575230615744E-01
H122  2.457865807465E-01  3.510716115079E-01  3.424769384256E-01
H123 -2.457865807465E-01 -1.489283884921E-01  1.575230615744E-01
H124  2.457865807465E-01 -3.510716115079E-01 -3.424769384256E-01
H125  1.840510615033E-01  5.622693559063E-02  2.383327617631E-01
H126 -1.840510615033E-01  4.437730644094E-01 -2.616672382369E-01
H127  1.840510615033E-01 -5.622693559063E-02 -2.383327617631E-01
H128 -1.840510615033E-01 -4.437730644094E-01  2.616672382369E-01
H129 -1.840510615033E-01 -5.622693559063E-02 -2.383327617631E-01
H130  1.840510615033E-01 -4.437730644094E-01  2.616672382369E-01
H131 -1.840510615033E-01  5.622693559063E-02  2.383327617631E-01
H132  1.840510615033E-01  4.437730644094E-01 -2.616672382369E-01
H133  9.662411594810E-02  5.932488520511E-02  1.858965561118E-01
H134 -9.662411594810E-02  4.406751147949E-01 -3.141034438882E-01
H135  9.662411594810E-02 -5.932488520511E-02 -1.858965561118E-01
H136 -9.662411594810E-02 -4.406751147949E-01  3.141034438882E-01
H137 -9.662411594810E-02 -5.932488520511E-02 -1.858965561118E-01
H138  9.662411594810E-02 -4.406751147949E-01  3.141034438882E-01
H139 -9.662411594810E-02  5.932488520511E-02  1.858965561118E-01
H140  9.662411594810E-02  4.406751147949E-01 -3.141034438882E-01


#===END

data_OPT_STEP_17

_symmetry_space_group_name_H-M 'P 1'
_cell_length_a     26.78900000
_cell_length_b      7.17000000
_cell_length_c     14.21100000
_cell_angle_alpha   90.000000
_cell_angle_beta   90.000000
_cell_angle_gamma   90.000000

loop_
_atom_site_label
_atom_site_fract_x
_atom_site_fract_y
_atom_site_fract_z
C1  2.741178980726E-02  4.221615668559E-19 -2.207005792729E-20
C2 -2.741178980726E-02  5.000000000000E-01 -5.000000000000E-01
C3 -2.741178980726E-02 -3.086103668885E-19 -2.207005792729E-20
C4  2.741178980726E-02  5.000000000000E-01 -5.000000000000E-01
C5  5.319870514147E-02 -1.427663823763E-01  4.954822373610E-02
C6 -5.319870514147E-02 -3.572336176237E-01 -4.504517762639E-01
C7  5.319870514147E-02  1.427663823763E-01 -4.954822373610E-02
C8 -5.319870514147E-02  3.572336176237E-01  4.504517762639E-01
C9 -5.319870514147E-02  1.427663823763E-01 -4.954822373610E-02
C10  5.319870514147E-02  3.572336176237E-01  4.504517762639E-01
C11 -5.319870514147E-02 -1.427663823763E-01  4.954822373610E-02
C12  5.319870514147E-02 -3.572336176237E-01 -4.504517762639E-01
C13  2.686170489212E-02 -2.924039275702E-01  8.879417199117E-02
C14 -2.686170489212E-02 -2.075960724298E-01 -4.112058280088E-01
C15  2.686170489212E-02  2.924039275702E-01 -8.879417199117E-02
C16 -2.686170489212E-02  2.075960724298E-01  4.112058280088E-01
C17 -2.686170489212E-02  2.924039275702E-01 -8.879417199117E-02
C18  2.686170489212E-02  2.075960724298E-01  4.112058280088E-01
C19 -2.686170489212E-02 -2.924039275702E-01  8.879417199117E-02
C20  2.686170489212E-02 -2.075960724298E-01 -4.112058280088E-01
C21  5.189372521194E-02 -4.435125737946E-01  1.350283707367E-01
C22 -5.189372521194E-02 -5.648742620545E-02 -3.649716292633E-01
C23  5.189372521194E-02  4.435125737946E-01 -1.350283707367E-01
C24 -5.189372521194E-02  5.648742620545E-02  3.649716292633E-01
C25 -5.189372521194E-02  4.435125737946E-01 -1.350283707367E-01
C26  5.189372521194E-02  5.648742620545E-02  3.649716292633E-01
C27 -5.189372521194E-02 -4.435125737946E-01  1.350283707367E-01
C28  5.189372521194E-02 -5.648742620545E-02 -3.649716292633E-01
C29  2.644279828899E-02  4.141312689698E-01  1.758950872681E-01
C30 -2.644279828899E-02  8.586873103015E-02 -3.241049127319E-01
C31  2.644279828899E-02 -4.141312689698E-01 -1.758950872681E-01
C32 -2.644279828899E-02 -8.586873103015E-02  3.241049127319E-01
C33 -2.644279828899E-02 -4.141312689698E-01 -1.758950872681E-01
C34  2.644279828899E-02 -8.586873103015E-02  3.241049127319E-01
C35 -2.644279828899E-02  4.141312689698E-01  1.758950872681E-01
C36  2.644279828899E-02  8.586873103015E-02 -3.241049127319E-01
C37  1.076927933428E-01 -1.340417374630E-01  7.279131266059E-02
C38 -1.076927933428E-01 -3.659582625370E-01 -4.272086873394E-01
C39  1.076927933428E-01  1.340417374630E-01 -7.279131266059E-02
C40 -1.076927933428E-01  3.659582625370E-01  4.272086873394E-01
C41 -1.076927933428E-01  1.340417374630E-01 -7.279131266059E-02
C42  1.076927933428E-01  3.659582625370E-01  4.272086873394E-01
C43 -1.076927933428E-01 -1.340417374630E-01  7.279131266059E-02
C44  1.076927933428E-01 -3.659582625370E-01 -4.272086873394E-01
C45  1.427306902721E-01 -2.474923843740E-01  2.805466558503E-02
C46 -1.427306902721E-01 -2.525076156260E-01 -4.719453344150E-01
C47  1.427306902721E-01  2.474923843740E-01 -2.805466558503E-02
C48 -1.427306902721E-01  2.525076156260E-01  4.719453344150E-01
C49 -1.427306902721E-01  2.474923843740E-01 -2.805466558503E-02
C50  1.427306902721E-01  2.525076156260E-01  4.719453344150E-01
C51 -1.427306902721E-01 -2.474923843740E-01  2.805466558503E-02
C52  1.427306902721E-01 -2.525076156260E-01 -4.719453344150E-01
C53  1.918711357329E-01 -2.532214466377E-01  5.883955669204E-02
C54 -1.918711357329E-01 -2.467785533623E-01 -4.411604433080E-01
C55  1.918711357329E-01  2.532214466377E-01 -5.883955669204E-02
C56 -1.918711357329E-01  2.467785533623E-01  4.411604433080E-01
C57 -1.918711357329E-01  2.532214466377E-01 -5.883955669204E-02
C58  1.918711357329E-01  2.467785533623E-01  4.411604433080E-01
C59 -1.918711357329E-01 -2.532214466377E-01  5.883955669204E-02
C60  1.918711357329E-01 -2.467785533623E-01 -4.411604433080E-01
C61  2.072522867387E-01 -1.434850775024E-01  1.342784545306E-01
C62 -2.072522867387E-01 -3.565149224976E-01 -3.657215454694E-01
C63  2.072522867387E-01  1.434850775024E-01 -1.342784545306E-01
C64 -2.072522867387E-01  3.565149224976E-01  3.657215454694E-01
C65 -2.072522867387E-01  1.434850775024E-01 -1.342784545306E-01
C66  2.072522867387E-01  3.565149224976E-01  3.657215454694E-01
C67 -2.072522867387E-01 -1.434850775024E-01  1.342784545306E-01
C68  2.072522867387E-01 -3.565149224976E-01 -3.657215454694E-01
C69  1.727842924421E-01 -2.894218453162E-02  1.790986693220E-01
C70 -1.727842924421E-01 -4.710578154684E-01 -3.209013306780E-01
C71  1.727842924421E-01  2.894218453162E-02 -1.790986693220E-01
C72 -1.727842924421E-01  4.710578154684E-01  3.209013306780E-01
C73 -1.727842924421E-01  2.894218453162E-02 -1.790986693220E-01
C74  1.727842924421E-01  4.710578154684E-01  3.209013306780E-01
C75 -1.727842924421E-01 -2.894218453162E-02  1.790986693220E-01
C76  1.727842924421E-01 -4.710578154684E-01 -3.209013306780E-01
C77  1.234472067389E-01 -2.569937878080E-02  1.487917800797E-01
C78 -1.234472067389E-01 -4.743006212192E-01 -3.512082199203E-01
C79  1.234472067389E-01  2.569937878080E-02 -1.487917800797E-01
C80 -1.234472067389E-01  4.743006212192E-01  3.512082199203E-01
C81 -1.234472067389E-01  2.569937878080E-02 -1.487917800797E-01
C82  1.234472067389E-01  4.743006212192E-01  3.512082199203E-01
C83 -1.234472067389E-01 -2.569937878080E-02  1.487917800797E-01
C84  1.234472067389E-01 -4.743006212192E-01 -3.512082199203E-01
H85  9.215963180804E-02 -4.434053925898E-01  1.372186516628E-01
H86 -9.215963180804E-02 -5.659460741024E-02 -3.627813483372E-01
H87  9.215963180804E-02  4.434053925898E-01 -1.372186516628E-01
H88 -9.215963180804E-02  5.659460741024E-02  3.627813483372E-01
H89 -9.215963180804E-02  4.434053925898E-01 -1.372186516628E-01
H90  9.215963180804E-02  5.659460741024E-02  3.627813483372E-01
H91 -9.215963180804E-02 -4.434053925898E-01  1.372186516628E-01
H92  9.215963180804E-02 -5.659460741024E-02 -3.627813483372E-01
H93  4.620431117609E-02  3.016059947304E-01  2.100723012155E-01
H94 -4.620431117609E-02  1.983940052696E-01 -2.899276987845E-01
H95  4.620431117609E-02 -3.016059947304E-01 -2.100723012155E-01
H96 -4.620431117609E-02 -1.983940052696E-01  2.899276987845E-01
H97 -4.620431117609E-02 -3.016059947304E-01 -2.100723012155E-01
H98  4.620431117609E-02 -1.983940052696E-01  2.899276987845E-01
H99 -4.620431117609E-02  3.016059947304E-01  2.100723012155E-01
H100  4.620431117609E-02  1.983940052696E-01 -2.899276987845E-01
H101  1.311452357644E-01 -3.323704117191E-01 -3.100764018573E-02
H102 -1.311452357644E-01 -1.676295882809E-01  4.689923598143E-01
H103  1.311452357644E-01  3.323704117191E-01  3.100764018573E-02
H104 -1.311452357644E-01  1.676295882809E-01 -4.689923598143E-01
H105 -1.311452357644E-01  3.323704117191E-01  3.100764018573E-02
H106  1.311452357644E-01  1.676295882809E-01 -4.689923598143E-01
H107 -1.311452357644E-01 -3.323704117191E-01 -3.100764018573E-02
H108  1.311452357644E-01 -1.676295882809E-01  4.689923598143E-01
H109  2.184398847750E-01 -3.433028844532E-01  2.390081994566E-02
H110 -2.184398847750E-01 -1.566971155468E-01 -4.760991800543E-01
H111  2.184398847750E-01  3.433028844532E-01 -2.390081994566E-02
H112 -2.184398847750E-01  1.566971155468E-01  4.760991800543E-01
H113 -2.184398847750E-01  3.433028844532E-01 -2.390081994566E-02
H114  2.184398847750E-01  1.566971155468E-01  4.760991800543E-01
H115 -2.184398847750E-01 -3.433028844532E-01  2.390081994566E-02
H116  2.184398847750E-01 -1.566971155468E-01 -4.760991800543E-01
H117  2.457567056038E-01 -1.480742036410E-01  1.576253769690E-01
H118 -2.457567056038E-01 -3.519257963590E-01 -3.423746230310E-01
H119  2.457567056038E-01  1.480742036410E-01 -1.576253769690E-01
H120 -2.457567056038E-01  3.519257963590E-01  3.423746230310E-01
H121 -2.457567056038E-01  1.480742036410E-01 -1.576253769690E-01
H122  2.457567056038E-01  3.519257963590E-01  3.423746230310E-01
H123 -2.457567056038E-01 -1.480742036410E-01  1.576253769690E-01
H124  2.457567056038E-01 -3.519257963590E-01 -3.423746230310E-01
H125  1.839942300598E-01  5.766807054994E-02  2.379658242966E-01
H126 -1.839942300598E-01  4.423319294501E-01 -2.620341757034E-01
H127  1.839942300598E-01 -5.766807054994E-02 -2.379658242966E-01
H128 -1.839942300598E-01 -4.423319294501E-01  2.620341757034E-01
H129 -1.839942300598E-01 -5.766807054994E-02 -2.379658242966E-01
H130  1.839942300598E-01 -4.423319294501E-01  2.620341757034E-01
H131 -1.839942300598E-01  5.766807054994E-02  2.379658242966E-01
H132  1.839942300598E-01  4.423319294501E-01 -2.620341757034E-01
H133  9.667567744583E-02  6.122774635716E-02  1.850800461649E-01
H134 -9.667567744583E-02  4.387722536428E-01 -3.149199538351E-01
H135  9.667567744583E-02 -6.122774635716E-02 -1.850800461649E-01
H136 -9.667567744583E-02 -4.387722536428E-01  3.149199538351E-01
H137 -9.667567744583E-02 -6.122774635716E-02 -1.850800461649E-01
H138  9.667567744583E-02 -4.387722536428E-01  3.149199538351E-01
H139 -9.667567744583E-02  6.122774635716E-02  1.850800461649E-01
H140  9.667567744583E-02  4.387722536428E-01 -3.149199538351E-01


#===END

data_OPT_STEP_18

_symmetry_space_group_name_H-M 'P 1'
_cell_length_a     26.78900000
_cell_length_b      7.17000000
_cell_length_c     14.21100000
_cell_angle_alpha   90.000000
_cell_angle_beta   90.000000
_cell_angle_gamma   90.000000

loop_
_atom_site_label
_atom_site_fract_x
_atom_site_fract_y
_atom_site_fract_z
C1  2.741742485936E-02  3.983927020332E-19 -2.487570497188E-20
C2 -2.741742485936E-02  5.000000000000E-01 -5.000000000000E-01
C3 -2.741742485936E-02 -3.331180031956E-19 -2.487570497188E-20
C4  2.741742485936E-02  5.000000000000E-01 -5.000000000000E-01
C5  5.320092516246E-02 -1.428341418662E-01  4.953808281724E-02
C6 -5.320092516246E-02 -3.571658581338E-01 -4.504619171828E-01
C7  5.320092516246E-02  1.428341418662E-01 -4.953808281724E-02
C8 -5.320092516246E-02  3.571658581338E-01  4.504619171828E-01
C9 -5.320092516246E-02  1.428341418662E-01 -4.953808281724E-02
C10  5.320092516246E-02  3.571658581338E-01  4.504619171828E-01
C11 -5.320092516246E-02 -1.428341418662E-01  4.953808281724E-02
C12  5.320092516246E-02 -3.571658581338E-01 -4.504619171828E-01
C13  2.686637808984E-02 -2.928421442670E-01  8.841064256990E-02
C14 -2.686637808984E-02 -2.071578557330E-01 -4.115893574301E-01
C15  2.686637808984E-02  2.928421442670E-01 -8.841064256990E-02
C16 -2.686637808984E-02  2.071578557330E-01  4.115893574301E-01
C17 -2.686637808984E-02  2.928421442670E-01 -8.841064256990E-02
C18  2.686637808984E-02  2.071578557330E-01  4.115893574301E-01
C19 -2.686637808984E-02 -2.928421442670E-01  8.841064256990E-02
C20  2.686637808984E-02 -2.071578557330E-01 -4.115893574301E-01
C21  5.189905098824E-02 -4.439949601894E-01  1.345865078396E-01
C22 -5.189905098823E-02 -5.600503981055E-02 -3.654134921604E-01
C23  5.189905098824E-02  4.439949601894E-01 -1.345865078396E-01
C24 -5.189905098824E-02  5.600503981055E-02  3.654134921604E-01
C25 -5.189905098824E-02  4.439949601894E-01 -1.345865078396E-01
C26  5.189905098823E-02  5.600503981055E-02  3.654134921604E-01
C27 -5.189905098824E-02 -4.439949601894E-01  1.345865078396E-01
C28  5.189905098824E-02 -5.600503981055E-02 -3.654134921604E-01
C29  2.644229461330E-02  4.138259409380E-01  1.755537191852E-01
C30 -2.644229461330E-02  8.617405906199E-02 -3.244462808148E-01
C31  2.644229461330E-02 -4.138259409380E-01 -1.755537191852E-01
C32 -2.644229461330E-02 -8.617405906199E-02  3.244462808148E-01
C33 -2.644229461330E-02 -4.138259409380E-01 -1.755537191852E-01
C34  2.644229461330E-02 -8.617405906199E-02  3.244462808148E-01
C35 -2.644229461330E-02  4.138259409380E-01  1.755537191852E-01
C36  2.644229461330E-02  8.617405906199E-02 -3.244462808148E-01
C37  1.076526064352E-01 -1.339396529404E-01  7.314501967417E-02
C38 -1.076526064352E-01 -3.660603470596E-01 -4.268549803258E-01
C39  1.076526064352E-01  1.339396529404E-01 -7.314501967417E-02
C40 -1.076526064352E-01  3.660603470596E-01  4.268549803258E-01
C41 -1.076526064352E-01  1.339396529404E-01 -7.314501967417E-02
C42  1.076526064352E-01  3.660603470596E-01  4.268549803258E-01
C43 -1.076526064352E-01 -1.339396529404E-01  7.314501967417E-02
C44  1.076526064352E-01 -3.660603470596E-01 -4.268549803258E-01
C45  1.427837786600E-01 -2.475129794599E-01  2.875271748352E-02
C46 -1.427837786600E-01 -2.524870205401E-01 -4.712472825165E-01
C47  1.427837786600E-01  2.475129794599E-01 -2.875271748352E-02
C48 -1.427837786600E-01  2.524870205401E-01  4.712472825165E-01
C49 -1.427837786600E-01  2.475129794599E-01 -2.875271748352E-02
C50  1.427837786600E-01  2.524870205401E-01  4.712472825165E-01
C51 -1.427837786600E-01 -2.475129794599E-01  2.875271748352E-02
C52  1.427837786600E-01 -2.524870205401E-01 -4.712472825165E-01
C53  1.918968942553E-01 -2.526671858611E-01  5.960323306399E-02
C54 -1.918968942553E-01 -2.473328141389E-01 -4.403967669360E-01
C55  1.918968942553E-01  2.526671858611E-01 -5.960323306399E-02
C56 -1.918968942553E-01  2.473328141389E-01  4.403967669360E-01
C57 -1.918968942553E-01  2.526671858611E-01 -5.960323306399E-02
C58  1.918968942553E-01  2.473328141389E-01  4.403967669360E-01
C59 -1.918968942553E-01 -2.526671858611E-01  5.960323306399E-02
C60  1.918968942553E-01 -2.473328141389E-01 -4.403967669360E-01
C61  2.071806799261E-01 -1.420896942479E-01  1.347561225138E-01
C62 -2.071806799261E-01 -3.579103057521E-01 -3.652438774862E-01
C63  2.071806799261E-01  1.420896942479E-01 -1.347561225138E-01
C64 -2.071806799261E-01  3.579103057521E-01  3.652438774862E-01
C65 -2.071806799261E-01  1.420896942479E-01 -1.347561225138E-01
C66  2.071806799261E-01  3.579103057521E-01  3.652438774862E-01
C67 -2.071806799261E-01 -1.420896942479E-01  1.347561225138E-01
C68  2.071806799261E-01 -3.579103057521E-01 -3.652438774862E-01
C69  1.726683625929E-01 -2.699017681978E-02  1.790854727844E-01
C70 -1.726683625929E-01 -4.730098231802E-01 -3.209145272156E-01
C71  1.726683625929E-01  2.699017681978E-02 -1.790854727844E-01
C72 -1.726683625929E-01  4.730098231802E-01  3.209145272156E-01
C73 -1.726683625929E-01  2.699017681978E-02 -1.790854727844E-01
C74  1.726683625929E-01  4.730098231802E-01  3.209145272156E-01
C75 -1.726683625929E-01 -2.699017681978E-02  1.790854727844E-01
C76  1.726683625929E-01 -4.730098231802E-01 -3.209145272156E-01
C77  1.233316687922E-01 -2.445694339764E-02  1.487682720954E-01
C78 -1.233316687922E-01 -4.755430566024E-01 -3.512317279046E-01
C79  1.233316687922E-01  2.445694339764E-02 -1.487682720954E-01
C80 -1.233316687922E-01  4.755430566024E-01  3.512317279046E-01
C81 -1.233316687922E-01  2.445694339764E-02 -1.487682720954E-01
C82  1.233316687922E-01  4.755430566024E-01  3.512317279046E-01
C83 -1.233316687922E-01 -2.445694339764E-02  1.487682720954E-01
C84  1.233316687922E-01 -4.755430566024E-01 -3.512317279046E-01
H85  9.216266890512E-02 -4.437651329176E-01  1.370681244091E-01
H86 -9.216266890512E-02 -5.623486708240E-02 -3.629318755909E-01
H87  9.216266890512E-02  4.437651329176E-01 -1.370681244091E-01
H88 -9.216266890512E-02  5.623486708240E-02  3.629318755909E-01
H89 -9.216266890512E-02  4.437651329176E-01 -1.370681244091E-01
H90  9.216266890512E-02  5.623486708240E-02  3.629318755909E-01
H91 -9.216266890512E-02 -4.437651329176E-01  1.370681244091E-01
H92  9.216266890512E-02 -5.623486708240E-02 -3.629318755909E-01
H93  4.619341698690E-02  3.017210652383E-01  2.100287442917E-01
H94 -4.619341698690E-02  1.982789347617E-01 -2.899712557083E-01
H95  4.619341698690E-02 -3.017210652383E-01 -2.100287442917E-01
H96 -4.619341698690E-02 -1.982789347617E-01  2.899712557083E-01
H97 -4.619341698690E-02 -3.017210652383E-01 -2.100287442917E-01
H98  4.619341698690E-02 -1.982789347617E-01  2.899712557083E-01
H99 -4.619341698690E-02  3.017210652383E-01  2.100287442917E-01
H100  4.619341698690E-02  1.982789347617E-01 -2.899712557083E-01
H101  1.312771445069E-01 -3.328768701261E-01 -3.017804061186E-02
H102 -1.312771445069E-01 -1.671231298739E-01  4.698219593881E-01
H103  1.312771445069E-01  3.328768701261E-01  3.017804061186E-02
H104 -1.312771445069E-01  1.671231298739E-01 -4.698219593881E-01
H105 -1.312771445069E-01  3.328768701261E-01  3.017804061186E-02
H106  1.312771445069E-01  1.671231298739E-01 -4.698219593881E-01
H107 -1.312771445069E-01 -3.328768701261E-01 -3.017804061186E-02
H108  1.312771445069E-01 -1.671231298739E-01  4.698219593881E-01
H109  2.184947196443E-01 -3.433036150753E-01  2.508390502489E-02
H110 -2.184947196443E-01 -1.566963849247E-01 -4.749160949751E-01
H111  2.184947196443E-01  3.433036150753E-01 -2.508390502489E-02
H112 -2.184947196443E-01  1.566963849247E-01  4.749160949751E-01
H113 -2.184947196443E-01  3.433036150753E-01 -2.508390502489E-02
H114  2.184947196443E-01  1.566963849247E-01  4.749160949751E-01
H115 -2.184947196443E-01 -3.433036150753E-01  2.508390502489E-02
H116  2.184947196443E-01 -1.566963849247E-01 -4.749160949751E-01
H117  2.456546002531E-01 -1.463936827124E-01  1.582696285141E-01
H118 -2.456546002531E-01 -3.536063172876E-01 -3.417303714859E-01
H119  2.456546002531E-01  1.463936827124E-01 -1.582696285141E-01
H120 -2.456546002531E-01  3.536063172876E-01  3.417303714859E-01
H121 -2.456546002531E-01  1.463936827124E-01 -1.582696285141E-01
H122  2.456546002531E-01  3.536063172876E-01  3.417303714859E-01
H123 -2.456546002531E-01 -1.463936827124E-01  1.582696285141E-01
H124  2.456546002531E-01 -3.536063172876E-01 -3.417303714859E-01
H125  1.838447123349E-01  6.067309343592E-02  2.375806741830E-01
H126 -1.838447123349E-01  4.393269065641E-01 -2.624193258170E-01
H127  1.838447123349E-01 -6.067309343592E-02 -2.375806741830E-01
H128 -1.838447123349E-01 -4.393269065641E-01  2.624193258170E-01
H129 -1.838447123349E-01 -6.067309343592E-02 -2.375806741830E-01
H130  1.838447123349E-01 -4.393269065641E-01  2.624193258170E-01
H131 -1.838447123349E-01  6.067309343592E-02  2.375806741830E-01
H132  1.838447123349E-01  4.393269065641E-01 -2.624193258170E-01
H133  9.652204274446E-02  6.275559414629E-02  1.847929801275E-01
H134 -9.652204274446E-02  4.372444058537E-01 -3.152070198725E-01
H135  9.652204274446E-02 -6.275559414629E-02 -1.847929801275E-01
H136 -9.652204274446E-02 -4.372444058537E-01  3.152070198725E-01
H137 -9.652204274446E-02 -6.275559414629E-02 -1.847929801275E-01
H138  9.652204274446E-02 -4.372444058537E-01  3.152070198725E-01
H139 -9.652204274446E-02  6.275559414629E-02  1.847929801275E-01
H140  9.652204274446E-02  4.372444058537E-01 -3.152070198725E-01


#===END

data_OPT_STEP_19

_symmetry_space_group_name_H-M 'P 1'
_cell_length_a     26.78900000
_cell_length_b      7.17000000
_cell_length_c     14.21100000
_cell_angle_alpha   90.000000
_cell_angle_beta   90.000000
_cell_angle_gamma   90.000000

loop_
_atom_site_label
_atom_site_fract_x
_atom_site_fract_y
_atom_site_fract_z
C1  2.741861977984E-02  3.747168454978E-19 -2.699958612336E-20
C2 -2.741861977984E-02  5.000000000000E-01 -5.000000000000E-01
C3 -2.741861977984E-02 -3.569505172308E-19 -2.699958612336E-20
C4  2.741861977984E-02  5.000000000000E-01 -5.000000000000E-01
C5  5.319689638492E-02 -1.424901586938E-01  4.985332870149E-02
C6 -5.319689638492E-02 -3.575098413062E-01 -4.501466712985E-01
C7  5.319689638492E-02  1.424901586938E-01 -4.985332870149E-02
C8 -5.319689638492E-02  3.575098413062E-01  4.501466712985E-01
C9 -5.319689638492E-02  1.424901586938E-01 -4.985332870149E-02
C10  5.319689638492E-02  3.575098413062E-01  4.501466712985E-01
C11 -5.319689638492E-02 -1.424901586938E-01  4.985332870149E-02
C12  5.319689638492E-02 -3.575098413062E-01 -4.501466712985E-01
C13  2.686617531097E-02 -2.923801916591E-01  8.885077544091E-02
C14 -2.686617531097E-02 -2.076198083409E-01 -4.111492245591E-01
C15  2.686617531097E-02  2.923801916591E-01 -8.885077544091E-02
C16 -2.686617531097E-02  2.076198083409E-01  4.111492245591E-01
C17 -2.686617531097E-02  2.923801916591E-01 -8.885077544091E-02
C18  2.686617531097E-02  2.076198083409E-01  4.111492245591E-01
C19 -2.686617531097E-02 -2.923801916591E-01  8.885077544091E-02
C20  2.686617531097E-02 -2.076198083409E-01 -4.111492245591E-01
C21  5.190226571789E-02 -4.437362865768E-01  1.348667998228E-01
C22 -5.190226571789E-02 -5.626371342316E-02 -3.651332001772E-01
C23  5.190226571789E-02  4.437362865768E-01 -1.348667998228E-01
C24 -5.190226571789E-02  5.626371342316E-02  3.651332001772E-01
C25 -5.190226571789E-02  4.437362865768E-01 -1.348667998228E-01
C26  5.190226571789E-02  5.626371342316E-02  3.651332001772E-01
C27 -5.190226571789E-02 -4.437362865768E-01  1.348667998228E-01
C28  5.190226571789E-02 -5.626371342316E-02 -3.651332001772E-01
C29  2.644378235228E-02  4.139349046188E-01  1.757737854055E-01
C30 -2.644378235228E-02  8.606509538123E-02 -3.242262145945E-01
C31  2.644378235228E-02 -4.139349046188E-01 -1.757737854055E-01
C32 -2.644378235228E-02 -8.606509538123E-02  3.242262145945E-01
C33 -2.644378235228E-02 -4.139349046188E-01 -1.757737854055E-01
C34  2.644378235228E-02 -8.606509538123E-02  3.242262145945E-01
C35 -2.644378235228E-02  4.139349046188E-01  1.757737854055E-01
C36  2.644378235228E-02  8.606509538123E-02 -3.242262145945E-01
C37  1.076636245092E-01 -1.336329467318E-01  7.333376611019E-02
C38 -1.076636245092E-01 -3.663670532682E-01 -4.266662338898E-01
C39  1.076636245092E-01  1.336329467318E-01 -7.333376611019E-02
C40 -1.076636245092E-01  3.663670532682E-01  4.266662338898E-01
C41 -1.076636245092E-01  1.336329467318E-01 -7.333376611019E-02
C42  1.076636245092E-01  3.663670532682E-01  4.266662338898E-01
C43 -1.076636245092E-01 -1.336329467318E-01  7.333376611019E-02
C44  1.076636245092E-01 -3.663670532682E-01 -4.266662338898E-01
C45  1.427224041163E-01 -2.482972143755E-01  2.941587831751E-02
C46 -1.427224041163E-01 -2.517027856245E-01 -4.705841216825E-01
C47  1.427224041163E-01  2.482972143755E-01 -2.941587831751E-02
C48 -1.427224041163E-01  2.517027856245E-01  4.705841216825E-01
C49 -1.427224041163E-01  2.482972143755E-01 -2.941587831751E-02
C50  1.427224041163E-01  2.517027856245E-01  4.705841216825E-01
C51 -1.427224041163E-01 -2.482972143755E-01  2.941587831751E-02
C52  1.427224041163E-01 -2.517027856245E-01 -4.705841216825E-01
C53  1.918721972851E-01 -2.531424224726E-01  6.013927189669E-02
C54 -1.918721972851E-01 -2.468575775274E-01 -4.398607281033E-01
C55  1.918721972851E-01  2.531424224726E-01 -6.013927189669E-02
C56 -1.918721972851E-01  2.468575775274E-01  4.398607281033E-01
C57 -1.918721972851E-01  2.531424224726E-01 -6.013927189669E-02
C58  1.918721972851E-01  2.468575775274E-01  4.398607281033E-01
C59 -1.918721972851E-01 -2.531424224726E-01  6.013927189669E-02
C60  1.918721972851E-01 -2.468575775274E-01 -4.398607281033E-01
C61  2.072600577533E-01 -1.410875715648E-01  1.346598413239E-01
C62 -2.072600577533E-01 -3.589124284352E-01 -3.653401586761E-01
C63  2.072600577533E-01  1.410875715648E-01 -1.346598413239E-01
C64 -2.072600577533E-01  3.589124284352E-01  3.653401586761E-01
C65 -2.072600577533E-01  1.410875715648E-01 -1.346598413239E-01
C66  2.072600577533E-01  3.589124284352E-01  3.653401586761E-01
C67 -2.072600577533E-01 -1.410875715648E-01  1.346598413239E-01
C68  2.072600577533E-01 -3.589124284352E-01 -3.653401586761E-01
C69  1.727812296803E-01 -2.538287115415E-02  1.787058724497E-01
C70 -1.727812296803E-01 -4.746171288459E-01 -3.212941275503E-01
C71  1.727812296803E-01  2.538287115415E-02 -1.787058724497E-01
C72 -1.727812296803E-01  4.746171288459E-01  3.212941275503E-01
C73 -1.727812296803E-01  2.538287115415E-02 -1.787058724497E-01
C74  1.727812296803E-01  4.746171288459E-01  3.212941275503E-01
C75 -1.727812296803E-01 -2.538287115415E-02  1.787058724497E-01
C76  1.727812296803E-01 -4.746171288459E-01 -3.212941275503E-01
C77  1.234105768666E-01 -2.326158555535E-02  1.485629512617E-01
C78 -1.234105768666E-01 -4.767384144446E-01 -3.514370487383E-01
C79  1.234105768666E-01  2.326158555535E-02 -1.485629512617E-01
C80 -1.234105768666E-01  4.767384144446E-01  3.514370487383E-01
C81 -1.234105768666E-01  2.326158555535E-02 -1.485629512617E-01
C82  1.234105768666E-01  4.767384144446E-01  3.514370487383E-01
C83 -1.234105768666E-01 -2.326158555535E-02  1.485629512617E-01
C84  1.234105768666E-01 -4.767384144446E-01 -3.514370487383E-01
H85  9.216062760212E-02 -4.436355478603E-01  1.373581214253E-01
H86 -9.216062760212E-02 -5.636445213970E-02 -3.626418785747E-01
H87  9.216062760212E-02  4.436355478603E-01 -1.373581214253E-01
H88 -9.216062760212E-02  5.636445213970E-02  3.626418785747E-01
H89 -9.216062760212E-02  4.436355478603E-01 -1.373581214253E-01
H90  9.216062760212E-02  5.636445213970E-02  3.626418785747E-01
H91 -9.216062760212E-02 -4.436355478603E-01  1.373581214253E-01
H92  9.216062760212E-02 -5.636445213970E-02 -3.626418785747E-01
H93  4.620284174102E-02  3.016977287425E-01  2.101687299826E-01
H94 -4.620284174102E-02  1.983022712575E-01 -2.898312700174E-01
H95  4.620284174102E-02 -3.016977287425E-01 -2.101687299826E-01
H96 -4.620284174102E-02 -1.983022712575E-01  2.898312700174E-01
H97 -4.620284174102E-02 -3.016977287425E-01 -2.101687299826E-01
H98  4.620284174102E-02 -1.983022712575E-01  2.898312700174E-01
H99 -4.620284174102E-02  3.016977287425E-01  2.101687299826E-01
H100  4.620284174102E-02  1.983022712575E-01 -2.898312700174E-01
H101  1.311973082386E-01 -3.340238201141E-01 -2.935429186473E-02
H102 -1.311973082386E-01 -1.659761798859E-01  4.706457081353E-01
H103  1.311973082386E-01  3.340238201141E-01  2.935429186473E-02
H104 -1.311973082386E-01  1.659761798859E-01 -4.706457081353E-01
H105 -1.311973082386E-01  3.340238201141E-01  2.935429186473E-02
H106  1.311973082386E-01  1.659761798859E-01 -4.706457081353E-01
H107 -1.311973082386E-01 -3.340238201141E-01 -2.935429186473E-02
H108  1.311973082386E-01 -1.659761798859E-01  4.706457081353E-01
H109  2.184853349985E-01 -3.438106728580E-01  2.569915676837E-02
H110 -2.184853349985E-01 -1.561893271420E-01 -4.743008432316E-01
H111  2.184853349985E-01  3.438106728580E-01 -2.569915676837E-02
H112 -2.184853349985E-01  1.561893271420E-01  4.743008432316E-01
H113 -2.184853349985E-01  3.438106728580E-01 -2.569915676837E-02
H114  2.184853349985E-01  1.561893271420E-01  4.743008432316E-01
H115 -2.184853349985E-01 -3.438106728580E-01  2.569915676837E-02
H116  2.184853349985E-01 -1.561893271420E-01 -4.743008432316E-01
H117  2.457638311840E-01 -1.448884226447E-01  1.580070903674E-01
H118 -2.457638311840E-01 -3.551115773553E-01 -3.419929096326E-01
H119  2.457638311840E-01  1.448884226447E-01 -1.580070903674E-01
H120 -2.457638311840E-01  3.551115773553E-01  3.419929096326E-01
H121 -2.457638311840E-01  1.448884226447E-01 -1.580070903674E-01
H122  2.457638311840E-01  3.551115773553E-01  3.419929096326E-01
H123 -2.457638311840E-01 -1.448884226447E-01  1.580070903674E-01
H124  2.457638311840E-01 -3.551115773553E-01 -3.419929096326E-01
H125  1.840568994004E-01  6.381475792511E-02  2.365247002334E-01
H126 -1.840568994004E-01  4.361852420749E-01 -2.634752997666E-01
H127  1.840568994004E-01 -6.381475792511E-02 -2.365247002334E-01
H128 -1.840568994004E-01 -4.361852420749E-01  2.634752997666E-01
H129 -1.840568994004E-01 -6.381475792511E-02 -2.365247002334E-01
H130  1.840568994004E-01 -4.361852420749E-01  2.634752997666E-01
H131 -1.840568994004E-01  6.381475792511E-02  2.365247002334E-01
H132  1.840568994004E-01  4.361852420749E-01 -2.634752997666E-01
H133  9.664692568720E-02  6.489277121309E-02  1.841247940648E-01
H134 -9.664692568720E-02  4.351072287869E-01 -3.158752059352E-01
H135  9.664692568720E-02 -6.489277121309E-02 -1.841247940648E-01
H136 -9.664692568720E-02 -4.351072287869E-01  3.158752059352E-01
H137 -9.664692568720E-02 -6.489277121309E-02 -1.841247940648E-01
H138  9.664692568720E-02 -4.351072287869E-01  3.158752059352E-01
H139 -9.664692568720E-02  6.489277121309E-02  1.841247940648E-01
H140  9.664692568720E-02  4.351072287869E-01 -3.158752059352E-01


#===END

data_OPT_STEP_20

_symmetry_space_group_name_H-M 'P 1'
_cell_length_a     26.78900000
_cell_length_b      7.17000000
_cell_length_c     14.21100000
_cell_angle_alpha   90.000000
_cell_angle_beta   90.000000
_cell_angle_gamma   90.000000

loop_
_atom_site_label
_atom_site_fract_x
_atom_site_fract_y
_atom_site_fract_z
C1  2.741360295952E-02  3.651891649746E-19 -2.981288904137E-20
C2 -2.741360295952E-02  5.000000000000E-01 -5.000000000000E-01
C3 -2.741360295952E-02 -3.658204782286E-19 -2.981288904137E-20
C4  2.741360295952E-02  5.000000000000E-01 -5.000000000000E-01
C5  5.318999433972E-02 -1.426038582899E-01  4.980287062181E-02
C6 -5.318999433972E-02 -3.573961417101E-01 -4.501971293782E-01
C7  5.318999433972E-02  1.426038582899E-01 -4.980287062181E-02
C8 -5.318999433972E-02  3.573961417101E-01  4.501971293782E-01
C9 -5.318999433972E-02  1.426038582899E-01 -4.980287062181E-02
C10  5.318999433972E-02  3.573961417101E-01  4.501971293782E-01
C11 -5.318999433972E-02 -1.426038582899E-01  4.980287062181E-02
C12  5.318999433972E-02 -3.573961417101E-01 -4.501971293782E-01
C13  2.686455535629E-02 -2.925372925402E-01  8.876610205327E-02
C14 -2.686455535629E-02 -2.074627074598E-01 -4.112338979467E-01
C15  2.686455535629E-02  2.925372925402E-01 -8.876610205327E-02
C16 -2.686455535629E-02  2.074627074598E-01  4.112338979467E-01
C17 -2.686455535629E-02  2.925372925402E-01 -8.876610205327E-02
C18  2.686455535629E-02  2.074627074598E-01  4.112338979467E-01
C19 -2.686455535629E-02 -2.925372925402E-01  8.876610205327E-02
C20  2.686455535629E-02 -2.074627074598E-01 -4.112338979467E-01
C21  5.190013808355E-02 -4.440238417854E-01  1.347221001168E-01
C22 -5.190013808355E-02 -5.597615821457E-02 -3.652778998832E-01
C23  5.190013808355E-02  4.440238417854E-01 -1.347221001168E-01
C24 -5.190013808355E-02  5.597615821457E-02  3.652778998832E-01
C25 -5.190013808355E-02  4.440238417854E-01 -1.347221001168E-01
C26  5.190013808355E-02  5.597615821457E-02  3.652778998832E-01
C27 -5.190013808355E-02 -4.440238417854E-01  1.347221001168E-01
C28  5.190013808355E-02 -5.597615821457E-02 -3.652778998832E-01
C29  2.644326913378E-02  4.133242249246E-01  1.754311976725E-01
C30 -2.644326913378E-02  8.667577507539E-02 -3.245688023275E-01
C31  2.644326913378E-02 -4.133242249246E-01 -1.754311976725E-01
C32 -2.644326913378E-02 -8.667577507539E-02  3.245688023275E-01
C33 -2.644326913378E-02 -4.133242249246E-01 -1.754311976725E-01
C34  2.644326913378E-02 -8.667577507539E-02  3.245688023275E-01
C35 -2.644326913378E-02  4.133242249246E-01  1.754311976725E-01
C36  2.644326913378E-02  8.667577507539E-02 -3.245688023275E-01
C37  1.076275501959E-01 -1.334972719396E-01  7.342765823411E-02
C38 -1.076275501959E-01 -3.665027280604E-01 -4.265723417659E-01
C39  1.076275501959E-01  1.334972719396E-01 -7.342765823411E-02
C40 -1.076275501959E-01  3.665027280604E-01  4.265723417659E-01
C41 -1.076275501959E-01  1.334972719396E-01 -7.342765823411E-02
C42  1.076275501959E-01  3.665027280604E-01  4.265723417659E-01
C43 -1.076275501959E-01 -1.334972719396E-01  7.342765823411E-02
C44  1.076275501959E-01 -3.665027280604E-01 -4.265723417659E-01
C45  1.427421388346E-01 -2.483155506681E-01  2.975006652844E-02
C46 -1.427421388346E-01 -2.516844493319E-01 -4.702499334716E-01
C47  1.427421388346E-01  2.483155506681E-01 -2.975006652844E-02
C48 -1.427421388346E-01  2.516844493319E-01  4.702499334716E-01
C49 -1.427421388346E-01  2.483155506681E-01 -2.975006652844E-02
C50  1.427421388346E-01  2.516844493319E-01  4.702499334716E-01
C51 -1.427421388346E-01 -2.483155506681E-01  2.975006652844E-02
C52  1.427421388346E-01 -2.516844493319E-01 -4.702499334716E-01
C53  1.919062006564E-01 -2.525816917393E-01  6.053840518828E-02
C54 -1.919062006564E-01 -2.474183082607E-01 -4.394615948117E-01
C55  1.919062006564E-01  2.525816917393E-01 -6.053840518828E-02
C56 -1.919062006564E-01  2.474183082607E-01  4.394615948117E-01
C57 -1.919062006564E-01  2.525816917393E-01 -6.053840518828E-02
C58  1.919062006564E-01  2.474183082607E-01  4.394615948117E-01
C59 -1.919062006564E-01 -2.525816917393E-01  6.053840518828E-02
C60  1.919062006564E-01 -2.474183082607E-01 -4.394615948117E-01
C61  2.072043175634E-01 -1.401078423753E-01  1.350211821033E-01
C62 -2.072043175634E-01 -3.598921576247E-01 -3.649788178967E-01
C63  2.072043175634E-01  1.401078423753E-01 -1.350211821033E-01
C64 -2.072043175634E-01  3.598921576247E-01  3.649788178967E-01
C65 -2.072043175634E-01  1.401078423753E-01 -1.350211821033E-01
C66  2.072043175634E-01  3.598921576247E-01  3.649788178967E-01
C67 -2.072043175634E-01 -1.401078423753E-01  1.350211821033E-01
C68  2.072043175634E-01 -3.598921576247E-01 -3.649788178967E-01
C69  1.726470828741E-01 -2.430748503450E-02  1.788113757249E-01
C70 -1.726470828741E-01 -4.756925149655E-01 -3.211886242751E-01
C71  1.726470828741E-01  2.430748503450E-02 -1.788113757249E-01
C72 -1.726470828741E-01  4.756925149655E-01  3.211886242751E-01
C73 -1.726470828741E-01  2.430748503450E-02 -1.788113757249E-01
C74  1.726470828741E-01  4.756925149655E-01  3.211886242751E-01
C75 -1.726470828741E-01 -2.430748503450E-02  1.788113757249E-01
C76  1.726470828741E-01 -4.756925149655E-01 -3.211886242751E-01
C77  1.233129805018E-01 -2.232418007351E-02  1.484191925356E-01
C78 -1.233129805018E-01 -4.776758199265E-01 -3.515808074644E-01
C79  1.233129805018E-01  2.232418007351E-02 -1.484191925356E-01
C80 -1.233129805018E-01  4.776758199265E-01  3.515808074644E-01
C81 -1.233129805018E-01  2.232418007351E-02 -1.484191925356E-01
C82  1.233129805018E-01  4.776758199265E-01  3.515808074644E-01
C83 -1.233129805018E-01 -2.232418007351E-02  1.484191925356E-01
C84  1.233129805018E-01 -4.776758199265E-01 -3.515808074644E-01
H85  9.214781023027E-02 -4.437955019278E-01  1.373768078081E-01
H86 -9.214781023027E-02 -5.620449807218E-02 -3.626231921919E-01
H87  9.214781023027E-02  4.437955019278E-01 -1.373768078081E-01
H88 -9.214781023027E-02  5.620449807218E-02  3.626231921919E-01
H89 -9.214781023027E-02  4.437955019278E-01 -1.373768078081E-01
H90  9.214781023027E-02  5.620449807218E-02  3.626231921919E-01
H91 -9.214781023027E-02 -4.437955019278E-01  1.373768078081E-01
H92  9.214781023027E-02 -5.620449807218E-02 -3.626231921919E-01
H93  4.621437846490E-02  3.007686588977E-01  2.096418712471E-01
H94 -4.621437846490E-02  1.992313411023E-01 -2.903581287529E-01
H95  4.621437846490E-02 -3.007686588977E-01 -2.096418712471E-01
H96 -4.621437846490E-02 -1.992313411023E-01  2.903581287529E-01
H97 -4.621437846490E-02 -3.007686588977E-01 -2.096418712471E-01
H98  4.621437846490E-02 -1.992313411023E-01  2.903581287529E-01
H99 -4.621437846490E-02  3.007686588977E-01  2.096418712471E-01
H100  4.621437846490E-02  1.992313411023E-01 -2.903581287529E-01
H101  1.311993335093E-01 -3.353131801952E-01 -2.853771291657E-02
H102 -1.311993335093E-01 -1.646868198048E-01  4.714622870834E-01
H103  1.311993335093E-01  3.353131801952E-01  2.853771291657E-02
H104 -1.311993335093E-01  1.646868198048E-01 -4.714622870834E-01
H105 -1.311993335093E-01  3.353131801952E-01  2.853771291657E-02
H106  1.311993335093E-01  1.646868198048E-01 -4.714622870834E-01
H107 -1.311993335093E-01 -3.353131801952E-01 -2.853771291657E-02
H108  1.311993335093E-01 -1.646868198048E-01  4.714622870834E-01
H109  2.185228760739E-01 -3.437931876062E-01  2.648763690761E-02
H110 -2.185228760739E-01 -1.562068123938E-01 -4.735123630924E-01
H111  2.185228760739E-01  3.437931876062E-01 -2.648763690761E-02
H112 -2.185228760739E-01  1.562068123938E-01  4.735123630924E-01
H113 -2.185228760739E-01  3.437931876062E-01 -2.648763690761E-02
H114  2.185228760739E-01  1.562068123938E-01  4.735123630924E-01
H115 -2.185228760739E-01 -3.437931876062E-01  2.648763690761E-02
H116  2.185228760739E-01 -1.562068123938E-01 -4.735123630924E-01
H117  2.456863064218E-01 -1.436843095499E-01  1.585496377301E-01
H118 -2.456863064218E-01 -3.563156904501E-01 -3.414503622699E-01
H119  2.456863064218E-01  1.436843095499E-01 -1.585496377301E-01
H120 -2.456863064218E-01  3.563156904501E-01  3.414503622699E-01
H121 -2.456863064218E-01  1.436843095499E-01 -1.585496377301E-01
H122  2.456863064218E-01  3.563156904501E-01  3.414503622699E-01
H123 -2.456863064218E-01 -1.436843095499E-01  1.585496377301E-01
H124  2.456863064218E-01 -3.563156904501E-01 -3.414503622699E-01
H125  1.837831858839E-01  6.437264473191E-02  2.369045959194E-01
H126 -1.837831858839E-01  4.356273552681E-01 -2.630954040806E-01
H127  1.837831858839E-01 -6.437264473191E-02 -2.369045959194E-01
H128 -1.837831858839E-01 -4.356273552681E-01  2.630954040806E-01
H129 -1.837831858839E-01 -6.437264473191E-02 -2.369045959194E-01
H130  1.837831858839E-01 -4.356273552681E-01  2.630954040806E-01
H131 -1.837831858839E-01  6.437264473191E-02  2.369045959194E-01
H132  1.837831858839E-01  4.356273552681E-01 -2.630954040806E-01
H133  9.650372627793E-02  6.621361006136E-02  1.835865525763E-01
H134 -9.650372627793E-02  4.337863899386E-01 -3.164134474237E-01
H135  9.650372627793E-02 -6.621361006136E-02 -1.835865525763E-01
H136 -9.650372627793E-02 -4.337863899386E-01  3.164134474237E-01
H137 -9.650372627793E-02 -6.621361006136E-02 -1.835865525763E-01
H138  9.650372627793E-02 -4.337863899386E-01  3.164134474237E-01
H139 -9.650372627793E-02  6.621361006136E-02  1.835865525763E-01
H140  9.650372627793E-02  4.337863899386E-01 -3.164134474237E-01


#===END

data_OPT_STEP_21

_symmetry_space_group_name_H-M 'P 1'
_cell_length_a     26.78900000
_cell_length_b      7.17000000
_cell_length_c     14.21100000
_cell_angle_alpha   90.000000
_cell_angle_beta   90.000000
_cell_angle_gamma   90.000000

loop_
_atom_site_label
_atom_site_fract_x
_atom_site_fract_y
_atom_site_fract_z
C1  2.741059574305E-02  3.591025086396E-19 -2.947622116924E-20
C2 -2.741059574305E-02  5.000000000000E-01 -5.000000000000E-01
C3 -2.741059574305E-02 -3.715128798650E-19 -2.947622116924E-20
C4  2.741059574305E-02  5.000000000000E-01 -5.000000000000E-01
C5  5.318773607912E-02 -1.426095320144E-01  4.976998301343E-02
C6 -5.318773607912E-02 -3.573904679856E-01 -4.502300169866E-01
C7  5.318773607912E-02  1.426095320144E-01 -4.976998301343E-02
C8 -5.318773607912E-02  3.573904679856E-01  4.502300169866E-01
C9 -5.318773607912E-02  1.426095320144E-01 -4.976998301343E-02
C10  5.318773607912E-02  3.573904679856E-01  4.502300169866E-01
C11 -5.318773607912E-02 -1.426095320144E-01  4.976998301343E-02
C12  5.318773607912E-02 -3.573904679856E-01 -4.502300169866E-01
C13  2.686602854147E-02 -2.925945821881E-01  8.870513549676E-02
C14 -2.686602854147E-02 -2.074054178119E-01 -4.112948645032E-01
C15  2.686602854147E-02  2.925945821881E-01 -8.870513549676E-02
C16 -2.686602854147E-02  2.074054178119E-01  4.112948645032E-01
C17 -2.686602854147E-02  2.925945821881E-01 -8.870513549676E-02
C18  2.686602854147E-02  2.074054178119E-01  4.112948645032E-01
C19 -2.686602854147E-02 -2.925945821881E-01  8.870513549676E-02
C20  2.686602854147E-02 -2.074054178119E-01 -4.112948645032E-01
C21  5.189929747566E-02 -4.439524888382E-01  1.347649894041E-01
C22 -5.189929747566E-02 -5.604751116179E-02 -3.652350105959E-01
C23  5.189929747566E-02  4.439524888382E-01 -1.347649894041E-01
C24 -5.189929747566E-02  5.604751116179E-02  3.652350105959E-01
C25 -5.189929747566E-02  4.439524888382E-01 -1.347649894041E-01
C26  5.189929747566E-02  5.604751116179E-02  3.652350105959E-01
C27 -5.189929747566E-02 -4.439524888382E-01  1.347649894041E-01
C28  5.189929747566E-02 -5.604751116179E-02 -3.652350105959E-01
C29  2.644174504616E-02  4.135771373657E-01  1.756190537503E-01
C30 -2.644174504616E-02  8.642286263429E-02 -3.243809462497E-01
C31  2.644174504616E-02 -4.135771373657E-01 -1.756190537503E-01
C32 -2.644174504616E-02 -8.642286263429E-02  3.243809462497E-01
C33 -2.644174504616E-02 -4.135771373657E-01 -1.756190537503E-01
C34  2.644174504616E-02 -8.642286263429E-02  3.243809462497E-01
C35 -2.644174504616E-02  4.135771373657E-01  1.756190537503E-01
C36  2.644174504616E-02  8.642286263429E-02 -3.243809462497E-01
C37  1.076272611480E-01 -1.334573311039E-01  7.337692352692E-02
C38 -1.076272611480E-01 -3.665426688961E-01 -4.266230764731E-01
C39  1.076272611480E-01  1.334573311039E-01 -7.337692352692E-02
C40 -1.076272611480E-01  3.665426688961E-01  4.266230764731E-01
C41 -1.076272611480E-01  1.334573311039E-01 -7.337692352692E-02
C42  1.076272611480E-01  3.665426688961E-01  4.266230764731E-01
C43 -1.076272611480E-01 -1.334573311039E-01  7.337692352692E-02
C44  1.076272611480E-01 -3.665426688961E-01 -4.266230764731E-01
C45  1.427550754062E-01 -2.481544168112E-01  2.967411213512E-02
C46 -1.427550754062E-01 -2.518455831888E-01 -4.703258878649E-01
C47  1.427550754062E-01  2.481544168112E-01 -2.967411213512E-02
C48 -1.427550754062E-01  2.518455831888E-01  4.703258878649E-01
C49 -1.427550754062E-01  2.481544168112E-01 -2.967411213512E-02
C50  1.427550754062E-01  2.518455831888E-01  4.703258878649E-01
C51 -1.427550754062E-01 -2.481544168112E-01  2.967411213512E-02
C52  1.427550754062E-01 -2.518455831888E-01 -4.703258878649E-01
C53  1.919133856844E-01 -2.523692293784E-01  6.048507017781E-02
C54 -1.919133856844E-01 -2.476307706216E-01 -4.395149298222E-01
C55  1.919133856844E-01  2.523692293784E-01 -6.048507017781E-02
C56 -1.919133856844E-01  2.476307706216E-01  4.395149298222E-01
C57 -1.919133856844E-01  2.523692293784E-01 -6.048507017781E-02
C58  1.919133856844E-01  2.476307706216E-01  4.395149298222E-01
C59 -1.919133856844E-01 -2.523692293784E-01  6.048507017781E-02
C60  1.919133856844E-01 -2.476307706216E-01 -4.395149298222E-01
C61  2.071960296860E-01 -1.399177842844E-01  1.349813232547E-01
C62 -2.071960296860E-01 -3.600822157156E-01 -3.650186767453E-01
C63  2.071960296860E-01  1.399177842844E-01 -1.349813232547E-01
C64 -2.071960296860E-01  3.600822157156E-01  3.650186767453E-01
C65 -2.071960296860E-01  1.399177842844E-01 -1.349813232547E-01
C66  2.071960296860E-01  3.600822157156E-01  3.650186767453E-01
C67 -2.071960296860E-01 -1.399177842844E-01  1.349813232547E-01
C68  2.071960296860E-01 -3.600822157156E-01 -3.650186767453E-01
C69  1.726297440540E-01 -2.416873667566E-02  1.787703980622E-01
C70 -1.726297440540E-01 -4.758312633243E-01 -3.212296019378E-01
C71  1.726297440540E-01  2.416873667566E-02 -1.787703980622E-01
C72 -1.726297440540E-01  4.758312633243E-01  3.212296019378E-01
C73 -1.726297440540E-01  2.416873667566E-02 -1.787703980622E-01
C74  1.726297440540E-01  4.758312633243E-01  3.212296019378E-01
C75 -1.726297440540E-01 -2.416873667566E-02  1.787703980622E-01
C76  1.726297440540E-01 -4.758312633243E-01 -3.212296019378E-01
C77  1.232970780186E-01 -2.229138844305E-02  1.483802679704E-01
C78 -1.232970780186E-01 -4.777086115570E-01 -3.516197320296E-01
C79  1.232970780186E-01  2.229138844305E-02 -1.483802679704E-01
C80 -1.232970780186E-01  4.777086115570E-01  3.516197320296E-01
C81 -1.232970780186E-01  2.229138844305E-02 -1.483802679704E-01
C82  1.232970780186E-01  4.777086115570E-01  3.516197320296E-01
C83 -1.232970780186E-01 -2.229138844305E-02  1.483802679704E-01
C84  1.232970780186E-01 -4.777086115570E-01 -3.516197320296E-01
H85  9.215155070886E-02 -4.437998783084E-01  1.373693897928E-01
H86 -9.215155070886E-02 -5.620012169163E-02 -3.626306102072E-01
H87  9.215155070886E-02  4.437998783084E-01 -1.373693897928E-01
H88 -9.215155070886E-02  5.620012169163E-02  3.626306102072E-01
H89 -9.215155070886E-02  4.437998783084E-01 -1.373693897928E-01
H90  9.215155070886E-02  5.620012169163E-02  3.626306102072E-01
H91 -9.215155070886E-02 -4.437998783084E-01  1.373693897928E-01
H92  9.215155070886E-02 -5.620012169163E-02 -3.626306102072E-01
H93  4.621350633165E-02  3.012141473668E-01  2.099772112264E-01
H94 -4.621350633165E-02  1.987858526332E-01 -2.900227887736E-01
H95  4.621350633165E-02 -3.012141473668E-01 -2.099772112264E-01
H96 -4.621350633165E-02 -1.987858526332E-01  2.900227887736E-01
H97 -4.621350633165E-02 -3.012141473668E-01 -2.099772112264E-01
H98  4.621350633165E-02 -1.987858526332E-01  2.900227887736E-01
H99 -4.621350633165E-02  3.012141473668E-01  2.099772112264E-01
H100  4.621350633165E-02  1.987858526332E-01 -2.900227887736E-01
H101  1.312327563394E-01 -3.350437752679E-01 -2.866672438214E-02
H102 -1.312327563394E-01 -1.649562247321E-01  4.713332756179E-01
H103  1.312327563394E-01  3.350437752679E-01  2.866672438214E-02
H104 -1.312327563394E-01  1.649562247321E-01 -4.713332756179E-01
H105 -1.312327563394E-01  3.350437752679E-01  2.866672438214E-02
H106  1.312327563394E-01  1.649562247321E-01 -4.713332756179E-01
H107 -1.312327563394E-01 -3.350437752679E-01 -2.866672438214E-02
H108  1.312327563394E-01 -1.649562247321E-01  4.713332756179E-01
H109  2.185356990812E-01 -3.436681104211E-01  2.650292026963E-02
H110 -2.185356990812E-01 -1.563318895789E-01 -4.734970797304E-01
H111  2.185356990812E-01  3.436681104211E-01 -2.650292026963E-02
H112 -2.185356990812E-01  1.563318895789E-01  4.734970797304E-01
H113 -2.185356990812E-01  3.436681104211E-01 -2.650292026963E-02
H114  2.185356990812E-01  1.563318895789E-01  4.734970797304E-01
H115 -2.185356990812E-01 -3.436681104211E-01  2.650292026963E-02
H116  2.185356990812E-01 -1.563318895789E-01 -4.734970797304E-01
H117  2.456785298070E-01 -1.434659820418E-01  1.584932862471E-01
H118 -2.456785298070E-01 -3.565340179582E-01 -3.415067137529E-01
H119  2.456785298070E-01  1.434659820418E-01 -1.584932862471E-01
H120 -2.456785298070E-01  3.565340179582E-01  3.415067137529E-01
H121 -2.456785298070E-01  1.434659820418E-01 -1.584932862471E-01
H122  2.456785298070E-01  3.565340179582E-01  3.415067137529E-01
H123 -2.456785298070E-01 -1.434659820418E-01  1.584932862471E-01
H124  2.456785298070E-01 -3.565340179582E-01 -3.415067137529E-01
H125  1.837640181489E-01  6.461614269236E-02  2.368223211911E-01
H126 -1.837640181489E-01  4.353838573076E-01 -2.631776788089E-01
H127  1.837640181489E-01 -6.461614269236E-02 -2.368223211911E-01
H128 -1.837640181489E-01 -4.353838573076E-01  2.631776788089E-01
H129 -1.837640181489E-01 -6.461614269236E-02 -2.368223211911E-01
H130  1.837640181489E-01 -4.353838573076E-01  2.631776788089E-01
H131 -1.837640181489E-01  6.461614269236E-02  2.368223211911E-01
H132  1.837640181489E-01  4.353838573076E-01 -2.631776788089E-01
H133  9.645985318036E-02  6.612700431576E-02  1.835521303354E-01
H134 -9.645985318036E-02  4.338729956842E-01 -3.164478696646E-01
H135  9.645985318036E-02 -6.612700431576E-02 -1.835521303354E-01
H136 -9.645985318036E-02 -4.338729956842E-01  3.164478696646E-01
H137 -9.645985318036E-02 -6.612700431576E-02 -1.835521303354E-01
H138  9.645985318036E-02 -4.338729956842E-01  3.164478696646E-01
H139 -9.645985318036E-02  6.612700431576E-02  1.835521303354E-01
H140  9.645985318036E-02  4.338729956842E-01 -3.164478696646E-01


#===END

data_OPT_STEP_22

_symmetry_space_group_name_H-M 'P 1'
_cell_length_a     26.78900000
_cell_length_b      7.17000000
_cell_length_c     14.21100000
_cell_angle_alpha   90.000000
_cell_angle_beta   90.000000
_cell_angle_gamma   90.000000

loop_
_atom_site_label
_atom_site_fract_x
_atom_site_fract_y
_atom_site_fract_z
C1  2.741189898263E-02  3.643546840437E-19 -2.964836272008E-20
C2 -2.741189898263E-02  5.000000000000E-01 -5.000000000000E-01
C3 -2.741189898263E-02 -3.664315629051E-19 -2.964836272008E-20
C4  2.741189898263E-02  5.000000000000E-01 -5.000000000000E-01
C5  5.319912368740E-02 -1.427965060698E-01  4.958591782582E-02
C6 -5.319912368740E-02 -3.572034939302E-01 -4.504140821742E-01
C7  5.319912368740E-02  1.427965060698E-01 -4.958591782582E-02
C8 -5.319912368740E-02  3.572034939302E-01  4.504140821742E-01
C9 -5.319912368740E-02  1.427965060698E-01 -4.958591782582E-02
C10  5.319912368740E-02  3.572034939302E-01  4.504140821742E-01
C11 -5.319912368740E-02 -1.427965060698E-01  4.958591782582E-02
C12  5.319912368740E-02 -3.572034939302E-01 -4.504140821742E-01
C13  2.687013893142E-02 -2.927579207650E-01  8.854882779503E-02
C14 -2.687013893142E-02 -2.072420792350E-01 -4.114511722050E-01
C15  2.687013893142E-02  2.927579207650E-01 -8.854882779503E-02
C16 -2.687013893142E-02  2.072420792350E-01  4.114511722050E-01
C17 -2.687013893142E-02  2.927579207650E-01 -8.854882779503E-02
C18  2.687013893142E-02  2.072420792350E-01  4.114511722050E-01
C19 -2.687013893142E-02 -2.927579207650E-01  8.854882779503E-02
C20  2.687013893142E-02 -2.072420792350E-01 -4.114511722050E-01
C21  5.190060638867E-02 -4.439468516977E-01  1.347341701193E-01
C22 -5.190060638867E-02 -5.605314830232E-02 -3.652658298807E-01
C23  5.190060638867E-02  4.439468516977E-01 -1.347341701193E-01
C24 -5.190060638867E-02  5.605314830232E-02  3.652658298807E-01
C25 -5.190060638867E-02  4.439468516977E-01 -1.347341701193E-01
C26  5.190060638867E-02  5.605314830232E-02  3.652658298807E-01
C27 -5.190060638867E-02 -4.439468516977E-01  1.347341701193E-01
C28  5.190060638867E-02 -5.605314830232E-02 -3.652658298807E-01
C29  2.644004103243E-02  4.139446882406E-01  1.758477784972E-01
C30 -2.644004103243E-02  8.605531175939E-02 -3.241522215028E-01
C31  2.644004103243E-02 -4.139446882406E-01 -1.758477784972E-01
C32 -2.644004103243E-02 -8.605531175939E-02  3.241522215028E-01
C33 -2.644004103243E-02 -4.139446882406E-01 -1.758477784972E-01
C34  2.644004103243E-02 -8.605531175939E-02  3.241522215028E-01
C35 -2.644004103243E-02  4.139446882406E-01  1.758477784972E-01
C36  2.644004103243E-02  8.605531175939E-02 -3.241522215028E-01
C37  1.076403912189E-01 -1.335567487051E-01  7.321922252033E-02
C38 -1.076403912189E-01 -3.664432512949E-01 -4.267807774797E-01
C39  1.076403912189E-01  1.335567487051E-01 -7.321922252033E-02
C40 -1.076403912189E-01  3.664432512949E-01  4.267807774797E-01
C41 -1.076403912189E-01  1.335567487051E-01 -7.321922252033E-02
C42  1.076403912189E-01  3.664432512949E-01  4.267807774797E-01
C43 -1.076403912189E-01 -1.335567487051E-01  7.321922252033E-02
C44  1.076403912189E-01 -3.664432512949E-01 -4.267807774797E-01
C45  1.427938967112E-01 -2.481866114641E-01  2.956619627303E-02
C46 -1.427938967112E-01 -2.518133885359E-01 -4.704338037270E-01
C47  1.427938967112E-01  2.481866114641E-01 -2.956619627303E-02
C48 -1.427938967112E-01  2.518133885359E-01  4.704338037270E-01
C49 -1.427938967112E-01  2.481866114641E-01 -2.956619627303E-02
C50  1.427938967112E-01  2.518133885359E-01  4.704338037270E-01
C51 -1.427938967112E-01 -2.481866114641E-01  2.956619627303E-02
C52  1.427938967112E-01 -2.518133885359E-01 -4.704338037270E-01
C53  1.919126581497E-01 -2.525750837674E-01  6.054011381334E-02
C54 -1.919126581497E-01 -2.474249162326E-01 -4.394598861867E-01
C55  1.919126581497E-01  2.525750837674E-01 -6.054011381334E-02
C56 -1.919126581497E-01  2.474249162326E-01  4.394598861867E-01
C57 -1.919126581497E-01  2.525750837674E-01 -6.054011381334E-02
C58  1.919126581497E-01  2.474249162326E-01  4.394598861867E-01
C59 -1.919126581497E-01 -2.525750837674E-01  6.054011381334E-02
C60  1.919126581497E-01 -2.474249162326E-01 -4.394598861867E-01
C61  2.071336312943E-01 -1.403757004780E-01  1.351552073743E-01
C62 -2.071336312943E-01 -3.596242995220E-01 -3.648447926257E-01
C63  2.071336312943E-01  1.403757004780E-01 -1.351552073743E-01
C64 -2.071336312943E-01  3.596242995220E-01  3.648447926257E-01
C65 -2.071336312943E-01  1.403757004780E-01 -1.351552073743E-01
C66  2.071336312943E-01  3.596242995220E-01  3.648447926257E-01
C67 -2.071336312943E-01 -1.403757004780E-01  1.351552073743E-01
C68  2.071336312943E-01 -3.596242995220E-01 -3.648447926257E-01
C69  1.725521368159E-01 -2.463701650861E-02  1.788988116844E-01
C70 -1.725521368159E-01 -4.753629834914E-01 -3.211011883156E-01
C71  1.725521368159E-01  2.463701650861E-02 -1.788988116844E-01
C72 -1.725521368159E-01  4.753629834914E-01  3.211011883156E-01
C73 -1.725521368159E-01  2.463701650861E-02 -1.788988116844E-01
C74  1.725521368159E-01  4.753629834914E-01  3.211011883156E-01
C75 -1.725521368159E-01 -2.463701650861E-02  1.788988116844E-01
C76  1.725521368159E-01 -4.753629834914E-01 -3.211011883156E-01
C77  1.232534879145E-01 -2.260148672247E-02  1.483456603148E-01
C78 -1.232534879145E-01 -4.773985132775E-01 -3.516543396852E-01
C79  1.232534879145E-01  2.260148672247E-02 -1.483456603148E-01
C80 -1.232534879145E-01  4.773985132775E-01  3.516543396852E-01
C81 -1.232534879145E-01  2.260148672247E-02 -1.483456603148E-01
C82  1.232534879145E-01  4.773985132775E-01  3.516543396852E-01
C83 -1.232534879145E-01 -2.260148672247E-02  1.483456603148E-01
C84  1.232534879145E-01 -4.773985132775E-01 -3.516543396852E-01
H85  9.215824108842E-02 -4.438964992901E-01  1.372547687047E-01
H86 -9.215824108842E-02 -5.610350070991E-02 -3.627452312953E-01
H87  9.215824108842E-02  4.438964992901E-01 -1.372547687047E-01
H88 -9.215824108842E-02  5.610350070991E-02  3.627452312953E-01
H89 -9.215824108842E-02  4.438964992901E-01 -1.372547687047E-01
H90  9.215824108842E-02  5.610350070991E-02  3.627452312953E-01
H91 -9.215824108842E-02 -4.438964992901E-01  1.372547687047E-01
H92  9.215824108842E-02 -5.610350070991E-02 -3.627452312953E-01
H93  4.621083988530E-02  3.019220656734E-01  2.104562556021E-01
H94 -4.621083988530E-02  1.980779343266E-01 -2.895437443979E-01
H95  4.621083988530E-02 -3.019220656734E-01 -2.104562556021E-01
H96 -4.621083988530E-02 -1.980779343266E-01  2.895437443979E-01
H97 -4.621083988530E-02 -3.019220656734E-01 -2.104562556021E-01
H98  4.621083988530E-02 -1.980779343266E-01  2.895437443979E-01
H99 -4.621083988530E-02  3.019220656734E-01  2.104562556021E-01
H100  4.621083988530E-02  1.980779343266E-01 -2.895437443979E-01
H101  1.313497027929E-01 -3.345441040310E-01 -2.901556420733E-02
H102 -1.313497027929E-01 -1.654558959690E-01  4.709844357927E-01
H103  1.313497027929E-01  3.345441040310E-01  2.901556420733E-02
H104 -1.313497027929E-01  1.654558959690E-01 -4.709844357927E-01
H105 -1.313497027929E-01  3.345441040310E-01  2.901556420733E-02
H106  1.313497027929E-01  1.654558959690E-01 -4.709844357927E-01
H107 -1.313497027929E-01 -3.345441040310E-01 -2.901556420733E-02
H108  1.313497027929E-01 -1.654558959690E-01  4.709844357927E-01
H109  2.185693927345E-01 -3.437272466905E-01  2.655158624815E-02
H110 -2.185693927345E-01 -1.562727533095E-01 -4.734484137519E-01
H111  2.185693927345E-01  3.437272466905E-01 -2.655158624815E-02
H112 -2.185693927345E-01  1.562727533095E-01  4.734484137519E-01
H113 -2.185693927345E-01  3.437272466905E-01 -2.655158624815E-02
H114  2.185693927345E-01  1.562727533095E-01  4.734484137519E-01
H115 -2.185693927345E-01 -3.437272466905E-01  2.655158624815E-02
H116  2.185693927345E-01 -1.562727533095E-01 -4.734484137519E-01
H117  2.455877616503E-01 -1.441837215408E-01  1.588056439305E-01
H118 -2.455877616503E-01 -3.558162784592E-01 -3.411943560695E-01
H119  2.455877616503E-01  1.441837215408E-01 -1.588056439305E-01
H120 -2.455877616503E-01  3.558162784592E-01  3.411943560695E-01
H121 -2.455877616503E-01  1.441837215408E-01 -1.588056439305E-01
H122  2.455877616503E-01  3.558162784592E-01  3.411943560695E-01
H123 -2.455877616503E-01 -1.441837215408E-01  1.588056439305E-01
H124  2.455877616503E-01 -3.558162784592E-01 -3.411943560695E-01
H125  1.836702067530E-01  6.423127004926E-02  2.369263494424E-01
H126 -1.836702067530E-01  4.357687299507E-01 -2.630736505576E-01
H127  1.836702067530E-01 -6.423127004926E-02 -2.369263494424E-01
H128 -1.836702067530E-01 -4.357687299507E-01  2.630736505576E-01
H129 -1.836702067530E-01 -6.423127004926E-02 -2.369263494424E-01
H130  1.836702067530E-01 -4.357687299507E-01  2.630736505576E-01
H131 -1.836702067530E-01  6.423127004926E-02  2.369263494424E-01
H132  1.836702067530E-01  4.357687299507E-01 -2.630736505576E-01
H133  9.637160092411E-02  6.576439925791E-02  1.834352579381E-01
H134 -9.637160092411E-02  4.342356007421E-01 -3.165647420619E-01
H135  9.637160092411E-02 -6.576439925791E-02 -1.834352579381E-01
H136 -9.637160092411E-02 -4.342356007421E-01  3.165647420619E-01
H137 -9.637160092411E-02 -6.576439925791E-02 -1.834352579381E-01
H138  9.637160092411E-02 -4.342356007421E-01  3.165647420619E-01
H139 -9.637160092411E-02  6.576439925791E-02  1.834352579381E-01
H140  9.637160092411E-02  4.342356007421E-01 -3.165647420619E-01


#===END

data_OPT_STEP_23

_symmetry_space_group_name_H-M 'P 1'
_cell_length_a     26.78900000
_cell_length_b      7.17000000
_cell_length_c     14.21100000
_cell_angle_alpha   90.000000
_cell_angle_beta   90.000000
_cell_angle_gamma   90.000000

loop_
_atom_site_label
_atom_site_fract_x
_atom_site_fract_y
_atom_site_fract_z
C1  2.740910250096E-02  3.494263496327E-19 -2.784000421543E-20
C2 -2.740910250096E-02  5.000000000000E-01 -5.000000000000E-01
C3 -2.740910250096E-02 -3.809932705528E-19 -2.784000421543E-20
C4  2.740910250096E-02  5.000000000000E-01 -5.000000000000E-01
C5  5.319328890640E-02 -1.426297411291E-01  4.967896724657E-02
C6 -5.319328890639E-02 -3.573702588709E-01 -4.503210327534E-01
C7  5.319328890640E-02  1.426297411291E-01 -4.967896724657E-02
C8 -5.319328890640E-02  3.573702588709E-01  4.503210327534E-01
C9 -5.319328890640E-02  1.426297411291E-01 -4.967896724657E-02
C10  5.319328890640E-02  3.573702588709E-01  4.503210327534E-01
C11 -5.319328890640E-02 -1.426297411291E-01  4.967896724657E-02
C12  5.319328890640E-02 -3.573702588709E-01 -4.503210327534E-01
C13  2.687262454323E-02 -2.926568541889E-01  8.861036685926E-02
C14 -2.687262454323E-02 -2.073431458111E-01 -4.113896331407E-01
C15  2.687262454323E-02  2.926568541889E-01 -8.861036685926E-02
C16 -2.687262454323E-02  2.073431458111E-01  4.113896331407E-01
C17 -2.687262454323E-02  2.926568541889E-01 -8.861036685926E-02
C18  2.687262454323E-02  2.073431458111E-01  4.113896331407E-01
C19 -2.687262454323E-02 -2.926568541889E-01  8.861036685926E-02
C20  2.687262454323E-02 -2.073431458111E-01 -4.113896331407E-01
C21  5.190376906402E-02 -4.437677234338E-01  1.348269934401E-01
C22 -5.190376906402E-02 -5.623227656619E-02 -3.651730065599E-01
C23  5.190376906402E-02  4.437677234338E-01 -1.348269934401E-01
C24 -5.190376906402E-02  5.623227656619E-02  3.651730065599E-01
C25 -5.190376906402E-02  4.437677234338E-01 -1.348269934401E-01
C26  5.190376906402E-02  5.623227656619E-02  3.651730065599E-01
C27 -5.190376906402E-02 -4.437677234338E-01  1.348269934401E-01
C28  5.190376906402E-02 -5.623227656619E-02 -3.651730065599E-01
C29  2.643966189594E-02  4.141510284001E-01  1.759215920998E-01
C30 -2.643966189594E-02  8.584897159989E-02 -3.240784079002E-01
C31  2.643966189594E-02 -4.141510284001E-01 -1.759215920998E-01
C32 -2.643966189594E-02 -8.584897159989E-02  3.240784079002E-01
C33 -2.643966189594E-02 -4.141510284001E-01 -1.759215920998E-01
C34  2.643966189594E-02 -8.584897159989E-02  3.240784079002E-01
C35 -2.643966189594E-02  4.141510284001E-01  1.759215920998E-01
C36  2.643966189594E-02  8.584897159989E-02 -3.240784079002E-01
C37  1.076504975494E-01 -1.334325558418E-01  7.321025047307E-02
C38 -1.076504975494E-01 -3.665674441582E-01 -4.267897495269E-01
C39  1.076504975494E-01  1.334325558418E-01 -7.321025047307E-02
C40 -1.076504975494E-01  3.665674441582E-01  4.267897495269E-01
C41 -1.076504975494E-01  1.334325558418E-01 -7.321025047307E-02
C42  1.076504975494E-01  3.665674441582E-01  4.267897495269E-01
C43 -1.076504975494E-01 -1.334325558418E-01  7.321025047307E-02
C44  1.076504975494E-01 -3.665674441582E-01 -4.267897495269E-01
C45  1.428109036173E-01 -2.479389339254E-01  2.952519751037E-02
C46 -1.428109036173E-01 -2.520610660746E-01 -4.704748024896E-01
C47  1.428109036173E-01  2.479389339254E-01 -2.952519751037E-02
C48 -1.428109036173E-01  2.520610660746E-01  4.704748024896E-01
C49 -1.428109036173E-01  2.479389339254E-01 -2.952519751037E-02
C50  1.428109036173E-01  2.520610660746E-01  4.704748024896E-01
C51 -1.428109036173E-01 -2.479389339254E-01  2.952519751037E-02
C52  1.428109036173E-01 -2.520610660746E-01 -4.704748024896E-01
C53  1.919151819881E-01 -2.523033678625E-01  6.052472067048E-02
C54 -1.919151819881E-01 -2.476966321375E-01 -4.394752793295E-01
C55  1.919151819881E-01  2.523033678625E-01 -6.052472067048E-02
C56 -1.919151819881E-01  2.476966321375E-01  4.394752793295E-01
C57 -1.919151819881E-01  2.523033678625E-01 -6.052472067048E-02
C58  1.919151819881E-01  2.476966321375E-01  4.394752793295E-01
C59 -1.919151819881E-01 -2.523033678625E-01  6.052472067048E-02
C60  1.919151819881E-01 -2.476966321375E-01 -4.394752793295E-01
C61  2.071472457619E-01 -1.397644791810E-01  1.349744580718E-01
C62 -2.071472457619E-01 -3.602355208190E-01 -3.650255419282E-01
C63  2.071472457619E-01  1.397644791810E-01 -1.349744580718E-01
C64 -2.071472457619E-01  3.602355208190E-01  3.650255419282E-01
C65 -2.071472457619E-01  1.397644791810E-01 -1.349744580718E-01
C66  2.071472457619E-01  3.602355208190E-01  3.650255419282E-01
C67 -2.071472457619E-01 -1.397644791810E-01  1.349744580718E-01
C68  2.071472457619E-01 -3.602355208190E-01 -3.650255419282E-01
C69  1.725845411372E-01 -2.383745666729E-02  1.786361998568E-01
C70 -1.725845411372E-01 -4.761625433327E-01 -3.213638001432E-01
C71  1.725845411372E-01  2.383745666729E-02 -1.786361998568E-01
C72 -1.725845411372E-01  4.761625433327E-01  3.213638001432E-01
C73 -1.725845411372E-01  2.383745666729E-02 -1.786361998568E-01
C74  1.725845411372E-01  4.761625433327E-01  3.213638001432E-01
C75 -1.725845411372E-01 -2.383745666729E-02  1.786361998568E-01
C76  1.725845411372E-01 -4.761625433327E-01 -3.213638001432E-01
C77  1.232635371484E-01 -2.225686209729E-02  1.482463736922E-01
C78 -1.232635371484E-01 -4.777431379027E-01 -3.517536263078E-01
C79  1.232635371484E-01  2.225686209729E-02 -1.482463736922E-01
C80 -1.232635371484E-01  4.777431379027E-01  3.517536263078E-01
C81 -1.232635371484E-01  2.225686209729E-02 -1.482463736922E-01
C82  1.232635371484E-01  4.777431379027E-01  3.517536263078E-01
C83 -1.232635371484E-01 -2.225686209729E-02  1.482463736922E-01
C84  1.232635371484E-01 -4.777431379027E-01 -3.517536263078E-01
H85  9.217432072097E-02 -4.439481523853E-01  1.371241437510E-01
H86 -9.217432072097E-02 -5.605184761466E-02 -3.628758562490E-01
H87  9.217432072097E-02  4.439481523853E-01 -1.371241437510E-01
H88 -9.217432072097E-02  5.605184761466E-02  3.628758562490E-01
H89 -9.217432072097E-02  4.439481523853E-01 -1.371241437510E-01
H90  9.217432072097E-02  5.605184761466E-02  3.628758562490E-01
H91 -9.217432072097E-02 -4.439481523853E-01  1.371241437510E-01
H92  9.217432072097E-02 -5.605184761466E-02 -3.628758562490E-01
H93  4.621160668350E-02  3.021359413142E-01  2.104830306186E-01
H94 -4.621160668350E-02  1.978640586858E-01 -2.895169693814E-01
H95  4.621160668350E-02 -3.021359413142E-01 -2.104830306186E-01
H96 -4.621160668350E-02 -1.978640586858E-01  2.895169693814E-01
H97 -4.621160668350E-02 -3.021359413142E-01 -2.104830306186E-01
H98  4.621160668350E-02 -1.978640586858E-01  2.895169693814E-01
H99 -4.621160668350E-02  3.021359413142E-01  2.104830306186E-01
H100  4.621160668350E-02  1.978640586858E-01 -2.895169693814E-01
H101  1.313687679709E-01 -3.344784689879E-01 -2.898768958045E-02
H102 -1.313687679709E-01 -1.655215310121E-01  4.710123104196E-01
H103  1.313687679709E-01  3.344784689879E-01  2.898768958045E-02
H104 -1.313687679709E-01  1.655215310121E-01 -4.710123104196E-01
H105 -1.313687679709E-01  3.344784689879E-01  2.898768958045E-02
H106  1.313687679709E-01  1.655215310121E-01 -4.710123104196E-01
H107 -1.313687679709E-01 -3.344784689879E-01 -2.898768958045E-02
H108  1.313687679709E-01 -1.655215310121E-01  4.710123104196E-01
H109  2.185939973199E-01 -3.434556400212E-01  2.658340356733E-02
H110 -2.185939973199E-01 -1.565443599788E-01 -4.734165964327E-01
H111  2.185939973199E-01  3.434556400212E-01 -2.658340356733E-02
H112 -2.185939973199E-01  1.565443599788E-01  4.734165964327E-01
H113 -2.185939973199E-01  3.434556400212E-01 -2.658340356733E-02
H114  2.185939973199E-01  1.565443599788E-01  4.734165964327E-01
H115 -2.185939973199E-01 -3.434556400212E-01  2.658340356733E-02
H116  2.185939973199E-01 -1.565443599788E-01 -4.734165964327E-01
H117  2.456217979222E-01 -1.433001533928E-01  1.584413092821E-01
H118 -2.456217979222E-01 -3.566998466072E-01 -3.415586907179E-01
H119  2.456217979222E-01  1.433001533928E-01 -1.584413092821E-01
H120 -2.456217979222E-01  3.566998466072E-01  3.415586907179E-01
H121 -2.456217979222E-01  1.433001533928E-01 -1.584413092821E-01
H122  2.456217979222E-01  3.566998466072E-01  3.415586907179E-01
H123 -2.456217979222E-01 -1.433001533928E-01  1.584413092821E-01
H124  2.456217979222E-01 -3.566998466072E-01 -3.415586907179E-01
H125  1.837286794263E-01  6.541035220390E-02  2.364923195246E-01
H126 -1.837286794263E-01  4.345896477961E-01 -2.635076804754E-01
H127  1.837286794263E-01 -6.541035220390E-02 -2.364923195246E-01
H128 -1.837286794263E-01 -4.345896477961E-01  2.635076804754E-01
H129 -1.837286794263E-01 -6.541035220390E-02 -2.364923195246E-01
H130  1.837286794263E-01 -4.345896477961E-01  2.635076804754E-01
H131 -1.837286794263E-01  6.541035220390E-02  2.364923195246E-01
H132  1.837286794263E-01  4.345896477961E-01 -2.635076804754E-01
H133  9.631553020755E-02  6.585763944203E-02  1.833333990643E-01
H134 -9.631553020755E-02  4.341423605580E-01 -3.166666009357E-01
H135  9.631553020755E-02 -6.585763944203E-02 -1.833333990643E-01
H136 -9.631553020755E-02 -4.341423605580E-01  3.166666009357E-01
H137 -9.631553020755E-02 -6.585763944203E-02 -1.833333990643E-01
H138  9.631553020755E-02 -4.341423605580E-01  3.166666009357E-01
H139 -9.631553020755E-02  6.585763944203E-02  1.833333990643E-01
H140  9.631553020755E-02  4.341423605580E-01 -3.166666009357E-01


#===END

data_OPT_STEP_24

_symmetry_space_group_name_H-M 'P 1'
_cell_length_a     26.78900000
_cell_length_b      7.17000000
_cell_length_c     14.21100000
_cell_angle_alpha   90.000000
_cell_angle_beta   90.000000
_cell_angle_gamma   90.000000

loop_
_atom_site_label
_atom_site_fract_x
_atom_site_fract_y
_atom_site_fract_z
C1  2.740878013033E-02  3.472966127583E-19 -2.836289656639E-20
C2 -2.740878013033E-02  5.000000000000E-01 -5.000000000000E-01
C3 -2.740878013033E-02 -3.830807437132E-19 -2.836289656639E-20
C4  2.740878013033E-02  5.000000000000E-01 -5.000000000000E-01
C5  5.319215723116E-02 -1.426808976371E-01  4.965760544228E-02
C6 -5.319215723116E-02 -3.573191023629E-01 -4.503423945577E-01
C7  5.319215723116E-02  1.426808976371E-01 -4.965760544228E-02
C8 -5.319215723116E-02  3.573191023629E-01  4.503423945577E-01
C9 -5.319215723116E-02  1.426808976371E-01 -4.965760544228E-02
C10  5.319215723116E-02  3.573191023629E-01  4.503423945577E-01
C11 -5.319215723116E-02 -1.426808976371E-01  4.965760544228E-02
C12  5.319215723116E-02 -3.573191023629E-01 -4.503423945577E-01
C13  2.687073897123E-02 -2.926777015747E-01  8.860414976930E-02
C14 -2.687073897123E-02 -2.073222984253E-01 -4.113958502307E-01
C15  2.687073897123E-02  2.926777015747E-01 -8.860414976930E-02
C16 -2.687073897123E-02  2.073222984253E-01  4.113958502307E-01
C17 -2.687073897123E-02  2.926777015747E-01 -8.860414976930E-02
C18  2.687073897123E-02  2.073222984253E-01  4.113958502307E-01
C19 -2.687073897123E-02 -2.926777015747E-01  8.860414976930E-02
C20  2.687073897123E-02 -2.073222984253E-01 -4.113958502307E-01
C21  5.190341953095E-02 -4.437887071910E-01  1.348294488964E-01
C22 -5.190341953095E-02 -5.621129280904E-02 -3.651705511036E-01
C23  5.190341953095E-02  4.437887071910E-01 -1.348294488964E-01
C24 -5.190341953095E-02  5.621129280904E-02  3.651705511036E-01
C25 -5.190341953095E-02  4.437887071910E-01 -1.348294488964E-01
C26  5.190341953095E-02  5.621129280904E-02  3.651705511036E-01
C27 -5.190341953095E-02 -4.437887071910E-01  1.348294488964E-01
C28  5.190341953095E-02 -5.621129280904E-02 -3.651705511036E-01
C29  2.644016235156E-02  4.142258184288E-01  1.760297244004E-01
C30 -2.644016235156E-02  8.577418157122E-02 -3.239702755996E-01
C31  2.644016235156E-02 -4.142258184288E-01 -1.760297244004E-01
C32 -2.644016235156E-02 -8.577418157122E-02  3.239702755996E-01
C33 -2.644016235156E-02 -4.142258184288E-01 -1.760297244004E-01
C34  2.644016235156E-02 -8.577418157122E-02  3.239702755996E-01
C35 -2.644016235156E-02  4.142258184288E-01  1.760297244004E-01
C36  2.644016235156E-02  8.577418157122E-02 -3.239702755996E-01
C37  1.076404743468E-01 -1.334567774186E-01  7.322907303718E-02
C38 -1.076404743468E-01 -3.665432225814E-01 -4.267709269628E-01
C39  1.076404743468E-01  1.334567774186E-01 -7.322907303718E-02
C40 -1.076404743468E-01  3.665432225814E-01  4.267709269628E-01
C41 -1.076404743468E-01  1.334567774186E-01 -7.322907303718E-02
C42  1.076404743468E-01  3.665432225814E-01  4.267709269628E-01
C43 -1.076404743468E-01 -1.334567774186E-01  7.322907303718E-02
C44  1.076404743468E-01 -3.665432225814E-01 -4.267709269628E-01
C45  1.428059021674E-01 -2.479908378153E-01  2.956952357979E-02
C46 -1.428059021674E-01 -2.520091621847E-01 -4.704304764202E-01
C47  1.428059021674E-01  2.479908378153E-01 -2.956952357979E-02
C48 -1.428059021674E-01  2.520091621847E-01  4.704304764202E-01
C49 -1.428059021674E-01  2.479908378153E-01 -2.956952357979E-02
C50  1.428059021674E-01  2.520091621847E-01  4.704304764202E-01
C51 -1.428059021674E-01 -2.479908378153E-01  2.956952357979E-02
C52  1.428059021674E-01 -2.520091621847E-01 -4.704304764202E-01
C53  1.919224483841E-01 -2.521981308561E-01  6.053677070708E-02
C54 -1.919224483841E-01 -2.478018691439E-01 -4.394632292929E-01
C55  1.919224483841E-01  2.521981308561E-01 -6.053677070708E-02
C56 -1.919224483841E-01  2.478018691439E-01  4.394632292929E-01
C57 -1.919224483841E-01  2.521981308561E-01 -6.053677070708E-02
C58  1.919224483841E-01  2.478018691439E-01  4.394632292929E-01
C59 -1.919224483841E-01 -2.521981308561E-01  6.053677070708E-02
C60  1.919224483841E-01 -2.478018691439E-01 -4.394632292929E-01
C61  2.071443667864E-01 -1.396460891563E-01  1.350055196679E-01
C62 -2.071443667864E-01 -3.603539108437E-01 -3.649944803321E-01
C63  2.071443667864E-01  1.396460891563E-01 -1.350055196679E-01
C64 -2.071443667864E-01  3.603539108437E-01  3.649944803321E-01
C65 -2.071443667864E-01  1.396460891563E-01 -1.350055196679E-01
C66  2.071443667864E-01  3.603539108437E-01  3.649944803321E-01
C67 -2.071443667864E-01 -1.396460891563E-01  1.350055196679E-01
C68  2.071443667864E-01 -3.603539108437E-01 -3.649944803321E-01
C69  1.725647016809E-01 -2.379374118921E-02  1.786765204503E-01
C70 -1.725647016809E-01 -4.762062588108E-01 -3.213234795497E-01
C71  1.725647016809E-01  2.379374118921E-02 -1.786765204503E-01
C72 -1.725647016809E-01  4.762062588108E-01  3.213234795497E-01
C73 -1.725647016809E-01  2.379374118921E-02 -1.786765204503E-01
C74  1.725647016809E-01  4.762062588108E-01  3.213234795497E-01
C75 -1.725647016809E-01 -2.379374118921E-02  1.786765204503E-01
C76  1.725647016809E-01 -4.762062588108E-01 -3.213234795497E-01
C77  1.232469304141E-01 -2.221520371866E-02  1.482532894991E-01
C78 -1.232469304141E-01 -4.777847962813E-01 -3.517467105009E-01
C79  1.232469304141E-01  2.221520371866E-02 -1.482532894991E-01
C80 -1.232469304141E-01  4.777847962813E-01  3.517467105009E-01
C81 -1.232469304141E-01  2.221520371866E-02 -1.482532894991E-01
C82  1.232469304141E-01  4.777847962813E-01  3.517467105009E-01
C83 -1.232469304141E-01 -2.221520371866E-02  1.482532894991E-01
C84  1.232469304141E-01 -4.777847962813E-01 -3.517467105009E-01
H85  9.217152211261E-02 -4.439238775249E-01  1.371320723519E-01
H86 -9.217152211261E-02 -5.607612247510E-02 -3.628679276481E-01
H87  9.217152211261E-02  4.439238775249E-01 -1.371320723519E-01
H88 -9.217152211261E-02  5.607612247510E-02  3.628679276481E-01
H89 -9.217152211261E-02  4.439238775249E-01 -1.371320723519E-01
H90  9.217152211261E-02  5.607612247510E-02  3.628679276481E-01
H91 -9.217152211261E-02 -4.439238775249E-01  1.371320723519E-01
H92  9.217152211261E-02 -5.607612247510E-02 -3.628679276481E-01
H93  4.621343645630E-02  3.022191548151E-01  2.106221914672E-01
H94 -4.621343645630E-02  1.977808451849E-01 -2.893778085328E-01
H95  4.621343645630E-02 -3.022191548151E-01 -2.106221914672E-01
H96 -4.621343645630E-02 -1.977808451849E-01  2.893778085328E-01
H97 -4.621343645630E-02 -3.022191548151E-01 -2.106221914672E-01
H98  4.621343645630E-02 -1.977808451849E-01  2.893778085328E-01
H99 -4.621343645630E-02  3.022191548151E-01  2.106221914672E-01
H100  4.621343645630E-02  1.977808451849E-01 -2.893778085328E-01
H101  1.313702749643E-01 -3.345400771963E-01 -2.894812270366E-02
H102 -1.313702749643E-01 -1.654599228037E-01  4.710518772963E-01
H103  1.313702749643E-01  3.345400771963E-01  2.894812270366E-02
H104 -1.313702749643E-01  1.654599228037E-01 -4.710518772963E-01
H105 -1.313702749643E-01  3.345400771963E-01  2.894812270366E-02
H106  1.313702749643E-01  1.654599228037E-01 -4.710518772963E-01
H107 -1.313702749643E-01 -3.345400771963E-01 -2.894812270366E-02
H108  1.313702749643E-01 -1.654599228037E-01  4.710518772963E-01
H109  2.185964943670E-01 -3.434184427206E-01  2.663190133040E-02
H110 -2.185964943670E-01 -1.565815572794E-01 -4.733680986696E-01
H111  2.185964943670E-01  3.434184427206E-01 -2.663190133040E-02
H112 -2.185964943670E-01  1.565815572794E-01  4.733680986696E-01
H113 -2.185964943670E-01  3.434184427206E-01 -2.663190133040E-02
H114  2.185964943670E-01  1.565815572794E-01  4.733680986696E-01
H115 -2.185964943670E-01 -3.434184427206E-01  2.663190133040E-02
H116  2.185964943670E-01 -1.565815572794E-01 -4.733680986696E-01
H117  2.456226441439E-01 -1.430857869019E-01  1.584816559710E-01
H118 -2.456226441439E-01 -3.569142130981E-01 -3.415183440290E-01
H119  2.456226441439E-01  1.430857869019E-01 -1.584816559710E-01
H120 -2.456226441439E-01  3.569142130981E-01  3.415183440290E-01
H121 -2.456226441439E-01  1.430857869019E-01 -1.584816559710E-01
H122  2.456226441439E-01  3.569142130981E-01  3.415183440290E-01
H123 -2.456226441439E-01 -1.430857869019E-01  1.584816559710E-01
H124  2.456226441439E-01 -3.569142130981E-01 -3.415183440290E-01
H125  1.837037359719E-01  6.550512457031E-02  2.365196394424E-01
H126 -1.837037359719E-01  4.344948754297E-01 -2.634803605576E-01
H127  1.837037359719E-01 -6.550512457031E-02 -2.365196394424E-01
H128 -1.837037359719E-01 -4.344948754297E-01  2.634803605576E-01
H129 -1.837037359719E-01 -6.550512457031E-02 -2.365196394424E-01
H130  1.837037359719E-01 -4.344948754297E-01  2.634803605576E-01
H131 -1.837037359719E-01  6.550512457031E-02  2.365196394424E-01
H132  1.837037359719E-01  4.344948754297E-01 -2.634803605576E-01
H133  9.630712375103E-02  6.605704642971E-02  1.832589156965E-01
H134 -9.630712375103E-02  4.339429535703E-01 -3.167410843035E-01
H135  9.630712375103E-02 -6.605704642971E-02 -1.832589156965E-01
H136 -9.630712375103E-02 -4.339429535703E-01  3.167410843035E-01
H137 -9.630712375103E-02 -6.605704642971E-02 -1.832589156965E-01
H138  9.630712375103E-02 -4.339429535703E-01  3.167410843035E-01
H139 -9.630712375103E-02  6.605704642971E-02  1.832589156965E-01
H140  9.630712375103E-02  4.339429535703E-01 -3.167410843035E-01


#===END

data_OPT_STEP_25

_symmetry_space_group_name_H-M 'P 1'
_cell_length_a     26.78900000
_cell_length_b      7.17000000
_cell_length_c     14.21100000
_cell_angle_alpha   90.000000
_cell_angle_beta   90.000000
_cell_angle_gamma   90.000000

loop_
_atom_site_label
_atom_site_fract_x
_atom_site_fract_y
_atom_site_fract_z
C1  2.740790713849E-02  3.439349223856E-19 -2.894270571009E-20
C2 -2.740790713849E-02  5.000000000000E-01 -5.000000000000E-01
C3 -2.740790713849E-02 -3.863279823541E-19 -2.894270571009E-20
C4  2.740790713849E-02  5.000000000000E-01 -5.000000000000E-01
C5  5.319362700157E-02 -1.427686990696E-01  4.959872445933E-02
C6 -5.319362700157E-02 -3.572313009304E-01 -4.504012755407E-01
C7  5.319362700157E-02  1.427686990696E-01 -4.959872445933E-02
C8 -5.319362700157E-02  3.572313009304E-01  4.504012755407E-01
C9 -5.319362700157E-02  1.427686990696E-01 -4.959872445933E-02
C10  5.319362700157E-02  3.572313009304E-01  4.504012755407E-01
C11 -5.319362700157E-02 -1.427686990696E-01  4.959872445933E-02
C12  5.319362700157E-02 -3.572313009304E-01 -4.504012755407E-01
C13  2.687004903359E-02 -2.927508057543E-01  8.855369074539E-02
C14 -2.687004903358E-02 -2.072491942457E-01 -4.114463092546E-01
C15  2.687004903359E-02  2.927508057543E-01 -8.855369074539E-02
C16 -2.687004903359E-02  2.072491942457E-01  4.114463092546E-01
C17 -2.687004903359E-02  2.927508057543E-01 -8.855369074539E-02
C18  2.687004903359E-02  2.072491942457E-01  4.114463092546E-01
C19 -2.687004903359E-02 -2.927508057543E-01  8.855369074539E-02
C20  2.687004903359E-02 -2.072491942457E-01 -4.114463092546E-01
C21  5.190334695641E-02 -4.438461653652E-01  1.348134434430E-01
C22 -5.190334695641E-02 -5.615383463482E-02 -3.651865565570E-01
C23  5.190334695641E-02  4.438461653652E-01 -1.348134434430E-01
C24 -5.190334695641E-02  5.615383463482E-02  3.651865565570E-01
C25 -5.190334695641E-02  4.438461653652E-01 -1.348134434430E-01
C26  5.190334695641E-02  5.615383463482E-02  3.651865565570E-01
C27 -5.190334695641E-02 -4.438461653652E-01  1.348134434430E-01
C28  5.190334695641E-02 -5.615383463482E-02 -3.651865565570E-01
C29  2.644094143751E-02  4.141223207831E-01  1.759917282742E-01
C30 -2.644094143751E-02  8.587767921688E-02 -3.240082717258E-01
C31  2.644094143751E-02 -4.141223207831E-01 -1.759917282742E-01
C32 -2.644094143751E-02 -8.587767921688E-02  3.240082717258E-01
C33 -2.644094143751E-02 -4.141223207831E-01 -1.759917282742E-01
C34  2.644094143751E-02 -8.587767921688E-02  3.240082717258E-01
C35 -2.644094143751E-02  4.141223207831E-01  1.759917282742E-01
C36  2.644094143751E-02  8.587767921688E-02 -3.240082717258E-01
C37  1.076327185705E-01 -1.334350392801E-01  7.321962091188E-02
C38 -1.076327185705E-01 -3.665649607199E-01 -4.267803790881E-01
C39  1.076327185705E-01  1.334350392801E-01 -7.321962091188E-02
C40 -1.076327185705E-01  3.665649607199E-01  4.267803790881E-01
C41 -1.076327185705E-01  1.334350392801E-01 -7.321962091188E-02
C42  1.076327185705E-01  3.665649607199E-01  4.267803790881E-01
C43 -1.076327185705E-01 -1.334350392801E-01  7.321962091188E-02
C44  1.076327185705E-01 -3.665649607199E-01 -4.267803790881E-01
C45  1.428096470302E-01 -2.481299828032E-01  2.968654055591E-02
C46 -1.428096470302E-01 -2.518700171968E-01 -4.703134594441E-01
C47  1.428096470302E-01  2.481299828032E-01 -2.968654055591E-02
C48 -1.428096470302E-01  2.518700171968E-01  4.703134594441E-01
C49 -1.428096470302E-01  2.481299828032E-01 -2.968654055591E-02
C50  1.428096470302E-01  2.518700171968E-01  4.703134594441E-01
C51 -1.428096470302E-01 -2.481299828032E-01  2.968654055591E-02
C52  1.428096470302E-01 -2.518700171968E-01 -4.703134594441E-01
C53  1.919354534012E-01 -2.521224819287E-01  6.065028093234E-02
C54 -1.919354534012E-01 -2.478775180713E-01 -4.393497190677E-01
C55  1.919354534012E-01  2.521224819287E-01 -6.065028093234E-02
C56 -1.919354534012E-01  2.478775180713E-01  4.393497190677E-01
C57 -1.919354534012E-01  2.521224819287E-01 -6.065028093234E-02
C58  1.919354534012E-01  2.478775180713E-01  4.393497190677E-01
C59 -1.919354534012E-01 -2.521224819287E-01  6.065028093234E-02
C60  1.919354534012E-01 -2.478775180713E-01 -4.393497190677E-01
C61  2.071374070371E-01 -1.393435454812E-01  1.350623556434E-01
C62 -2.071374070371E-01 -3.606564545188E-01 -3.649376443566E-01
C63  2.071374070371E-01  1.393435454812E-01 -1.350623556434E-01
C64 -2.071374070371E-01  3.606564545188E-01  3.649376443566E-01
C65 -2.071374070371E-01  1.393435454812E-01 -1.350623556434E-01
C66  2.071374070371E-01  3.606564545188E-01  3.649376443566E-01
C67 -2.071374070371E-01 -1.393435454812E-01  1.350623556434E-01
C68  2.071374070371E-01 -3.606564545188E-01 -3.649376443566E-01
C69  1.725309325608E-01 -2.348297755626E-02  1.786617785161E-01
C70 -1.725309325608E-01 -4.765170224437E-01 -3.213382214839E-01
C71  1.725309325608E-01  2.348297755626E-02 -1.786617785161E-01
C72 -1.725309325608E-01  4.765170224437E-01  3.213382214839E-01
C73 -1.725309325608E-01  2.348297755626E-02 -1.786617785161E-01
C74  1.725309325608E-01  4.765170224437E-01  3.213382214839E-01
C75 -1.725309325608E-01 -2.348297755626E-02  1.786617785161E-01
C76  1.725309325608E-01 -4.765170224437E-01 -3.213382214839E-01
C77  1.232186382622E-01 -2.199446191495E-02  1.481902069014E-01
C78 -1.232186382622E-01 -4.780055380851E-01 -3.518097930986E-01
C79  1.232186382622E-01  2.199446191495E-02 -1.481902069014E-01
C80 -1.232186382622E-01  4.780055380851E-01  3.518097930986E-01
C81 -1.232186382622E-01  2.199446191495E-02 -1.481902069014E-01
C82  1.232186382622E-01  4.780055380851E-01  3.518097930986E-01
C83 -1.232186382622E-01 -2.199446191495E-02  1.481902069014E-01
C84  1.232186382622E-01 -4.780055380851E-01 -3.518097930986E-01
H85  9.216832579227E-02 -4.439068322160E-01  1.371364290526E-01
H86 -9.216832579227E-02 -5.609316778405E-02 -3.628635709474E-01
H87  9.216832579227E-02  4.439068322160E-01 -1.371364290526E-01
H88 -9.216832579227E-02  5.609316778405E-02  3.628635709474E-01
H89 -9.216832579227E-02  4.439068322160E-01 -1.371364290526E-01
H90  9.216832579227E-02  5.609316778405E-02  3.628635709474E-01
H91 -9.216832579227E-02 -4.439068322160E-01  1.371364290526E-01
H92  9.216832579227E-02 -5.609316778405E-02 -3.628635709474E-01
H93  4.621149236734E-02  3.022668838768E-01  2.107357608430E-01
H94 -4.621149236734E-02  1.977331161232E-01 -2.892642391570E-01
H95  4.621149236734E-02 -3.022668838768E-01 -2.107357608430E-01
H96 -4.621149236734E-02 -1.977331161232E-01  2.892642391570E-01
H97 -4.621149236734E-02 -3.022668838768E-01 -2.107357608430E-01
H98  4.621149236734E-02 -1.977331161232E-01  2.892642391570E-01
H99 -4.621149236734E-02  3.022668838768E-01  2.107357608430E-01
H100  4.621149236734E-02  1.977331161232E-01 -2.892642391570E-01
H101  1.313844594190E-01 -3.348671880549E-01 -2.877335985998E-02
H102 -1.313844594190E-01 -1.651328119451E-01  4.712266401400E-01
H103  1.313844594190E-01  3.348671880549E-01  2.877335985998E-02
H104 -1.313844594190E-01  1.651328119451E-01 -4.712266401400E-01
H105 -1.313844594190E-01  3.348671880549E-01  2.877335985998E-02
H106  1.313844594190E-01  1.651328119451E-01 -4.712266401400E-01
H107 -1.313844594190E-01 -3.348671880549E-01 -2.877335985998E-02
H108  1.313844594190E-01 -1.651328119451E-01  4.712266401400E-01
H109  2.186164336884E-01 -3.433810841970E-01  2.679046682615E-02
H110 -2.186164336884E-01 -1.566189158030E-01 -4.732095331738E-01
H111  2.186164336884E-01  3.433810841970E-01 -2.679046682615E-02
H112 -2.186164336884E-01  1.566189158030E-01  4.732095331738E-01
H113 -2.186164336884E-01  3.433810841970E-01 -2.679046682615E-02
H114  2.186164336884E-01  1.566189158030E-01  4.732095331738E-01
H115 -2.186164336884E-01 -3.433810841970E-01  2.679046682615E-02
H116  2.186164336884E-01 -1.566189158030E-01 -4.732095331738E-01
H117  2.456036209948E-01 -1.427905036696E-01  1.586481593108E-01
H118 -2.456036209948E-01 -3.572094963304E-01 -3.413518406892E-01
H119  2.456036209948E-01  1.427905036696E-01 -1.586481593108E-01
H120 -2.456036209948E-01  3.572094963304E-01  3.413518406892E-01
H121 -2.456036209948E-01  1.427905036696E-01 -1.586481593108E-01
H122  2.456036209948E-01  3.572094963304E-01  3.413518406892E-01
H123 -2.456036209948E-01 -1.427905036696E-01  1.586481593108E-01
H124  2.456036209948E-01 -3.572094963304E-01 -3.413518406892E-01
H125  1.836459065025E-01  6.584387212940E-02  2.365140901095E-01
H126 -1.836459065025E-01  4.341561278706E-01 -2.634859098905E-01
H127  1.836459065025E-01 -6.584387212940E-02 -2.365140901095E-01
H128 -1.836459065025E-01 -4.341561278706E-01  2.634859098905E-01
H129 -1.836459065025E-01 -6.584387212940E-02 -2.365140901095E-01
H130  1.836459065025E-01 -4.341561278706E-01  2.634859098905E-01
H131 -1.836459065025E-01  6.584387212940E-02  2.365140901095E-01
H132  1.836459065025E-01  4.341561278706E-01 -2.634859098905E-01
H133  9.627383538070E-02  6.638068341852E-02  1.831090979181E-01
H134 -9.627383538070E-02  4.336193165815E-01 -3.168909020819E-01
H135  9.627383538070E-02 -6.638068341852E-02 -1.831090979181E-01
H136 -9.627383538070E-02 -4.336193165815E-01  3.168909020819E-01
H137 -9.627383538070E-02 -6.638068341852E-02 -1.831090979181E-01
H138  9.627383538070E-02 -4.336193165815E-01  3.168909020819E-01
H139 -9.627383538070E-02  6.638068341852E-02  1.831090979181E-01
H140  9.627383538070E-02  4.336193165815E-01 -3.168909020819E-01


#===END

data_OPT_STEP_26

_symmetry_space_group_name_H-M 'P 1'
_cell_length_a     26.78900000
_cell_length_b      7.17000000
_cell_length_c     14.21100000
_cell_angle_alpha   90.000000
_cell_angle_beta   90.000000
_cell_angle_gamma   90.000000

loop_
_atom_site_label
_atom_site_fract_x
_atom_site_fract_y
_atom_site_fract_z
C1  2.740856104821E-02  3.472229503805E-19 -2.844148937800E-20
C2 -2.740856104821E-02  5.000000000000E-01 -5.000000000000E-01
C3 -2.740856104821E-02 -3.831256837971E-19 -2.844148937800E-20
C4  2.740856104821E-02  5.000000000000E-01 -5.000000000000E-01
C5  5.319281350300E-02 -1.427207887758E-01  4.963253021831E-02
C6 -5.319281350300E-02 -3.572792112242E-01 -4.503674697817E-01
C7  5.319281350300E-02  1.427207887758E-01 -4.963253021831E-02
C8 -5.319281350300E-02  3.572792112242E-01  4.503674697817E-01
C9 -5.319281350300E-02  1.427207887758E-01 -4.963253021831E-02
C10  5.319281350300E-02  3.572792112242E-01  4.503674697817E-01
C11 -5.319281350300E-02 -1.427207887758E-01  4.963253021831E-02
C12  5.319281350300E-02 -3.572792112242E-01 -4.503674697817E-01
C13  2.687009439675E-02 -2.927012938929E-01  8.858896009808E-02
C14 -2.687009439675E-02 -2.072987061071E-01 -4.114110399019E-01
C15  2.687009439675E-02  2.927012938929E-01 -8.858896009808E-02
C16 -2.687009439675E-02  2.072987061071E-01  4.114110399019E-01
C17 -2.687009439675E-02  2.927012938929E-01 -8.858896009808E-02
C18  2.687009439675E-02  2.072987061071E-01  4.114110399019E-01
C19 -2.687009439675E-02 -2.927012938929E-01  8.858896009808E-02
C20  2.687009439675E-02 -2.072987061071E-01 -4.114110399019E-01
C21  5.190367639602E-02 -4.438152322317E-01  1.348218535562E-01
C22 -5.190367639602E-02 -5.618476776827E-02 -3.651781464438E-01
C23  5.190367639602E-02  4.438152322317E-01 -1.348218535562E-01
C24 -5.190367639602E-02  5.618476776827E-02  3.651781464438E-01
C25 -5.190367639602E-02  4.438152322317E-01 -1.348218535562E-01
C26  5.190367639602E-02  5.618476776827E-02  3.651781464438E-01
C27 -5.190367639602E-02 -4.438152322317E-01  1.348218535562E-01
C28  5.190367639602E-02 -5.618476776827E-02 -3.651781464438E-01
C29  2.644076223680E-02  4.141668228971E-01  1.760026334686E-01
C30 -2.644076223680E-02  8.583317710292E-02 -3.239973665314E-01
C31  2.644076223680E-02 -4.141668228971E-01 -1.760026334686E-01
C32 -2.644076223680E-02 -8.583317710292E-02  3.239973665314E-01
C33 -2.644076223680E-02 -4.141668228971E-01 -1.760026334686E-01
C34  2.644076223680E-02 -8.583317710292E-02  3.239973665314E-01
C35 -2.644076223680E-02  4.141668228971E-01  1.760026334686E-01
C36  2.644076223680E-02  8.583317710292E-02 -3.239973665314E-01
C37  1.076374274923E-01 -1.334607605502E-01  7.322164477128E-02
C38 -1.076374274923E-01 -3.665392394498E-01 -4.267783552287E-01
C39  1.076374274923E-01  1.334607605502E-01 -7.322164477128E-02
C40 -1.076374274923E-01  3.665392394498E-01  4.267783552287E-01
C41 -1.076374274923E-01  1.334607605502E-01 -7.322164477128E-02
C42  1.076374274923E-01  3.665392394498E-01  4.267783552287E-01
C43 -1.076374274923E-01 -1.334607605502E-01  7.322164477128E-02
C44  1.076374274923E-01 -3.665392394498E-01 -4.267783552287E-01
C45  1.428041757500E-01 -2.480516915778E-01  2.959807336067E-02
C46 -1.428041757500E-01 -2.519483084222E-01 -4.704019266393E-01
C47  1.428041757500E-01  2.480516915778E-01 -2.959807336067E-02
C48 -1.428041757500E-01  2.519483084222E-01  4.704019266393E-01
C49 -1.428041757500E-01  2.480516915778E-01 -2.959807336067E-02
C50  1.428041757500E-01  2.519483084222E-01  4.704019266393E-01
C51 -1.428041757500E-01 -2.480516915778E-01  2.959807336067E-02
C52  1.428041757500E-01 -2.519483084222E-01 -4.704019266393E-01
C53  1.919268631532E-01 -2.521839904888E-01  6.055314586384E-02
C54 -1.919268631532E-01 -2.478160095112E-01 -4.394468541362E-01
C55  1.919268631532E-01  2.521839904888E-01 -6.055314586384E-02
C56 -1.919268631532E-01  2.478160095112E-01  4.394468541362E-01
C57 -1.919268631532E-01  2.521839904888E-01 -6.055314586384E-02
C58  1.919268631532E-01  2.478160095112E-01  4.394468541362E-01
C59 -1.919268631532E-01 -2.521839904888E-01  6.055314586384E-02
C60  1.919268631532E-01 -2.478160095112E-01 -4.394468541362E-01
C61  2.071446584371E-01 -1.395795549058E-01  1.350120941355E-01
C62 -2.071446584371E-01 -3.604204450942E-01 -3.649879058645E-01
C63  2.071446584371E-01  1.395795549058E-01 -1.350120941355E-01
C64 -2.071446584371E-01  3.604204450942E-01  3.649879058645E-01
C65 -2.071446584371E-01  1.395795549058E-01 -1.350120941355E-01
C66  2.071446584371E-01  3.604204450942E-01  3.649879058645E-01
C67 -2.071446584371E-01 -1.395795549058E-01  1.350120941355E-01
C68  2.071446584371E-01 -3.604204450942E-01 -3.649879058645E-01
C69  1.725557219619E-01 -2.374874838720E-02  1.786759833234E-01
C70 -1.725557219619E-01 -4.762512516128E-01 -3.213240166766E-01
C71  1.725557219619E-01  2.374874838720E-02 -1.786759833234E-01
C72 -1.725557219619E-01  4.762512516128E-01  3.213240166766E-01
C73 -1.725557219619E-01  2.374874838720E-02 -1.786759833234E-01
C74  1.725557219619E-01  4.762512516128E-01  3.213240166766E-01
C75 -1.725557219619E-01 -2.374874838720E-02  1.786759833234E-01
C76  1.725557219619E-01 -4.762512516128E-01 -3.213240166766E-01
C77  1.232389472769E-01 -2.218034004506E-02  1.482378172645E-01
C78 -1.232389472769E-01 -4.778196599549E-01 -3.517621827355E-01
C79  1.232389472769E-01  2.218034004506E-02 -1.482378172645E-01
C80 -1.232389472769E-01  4.778196599549E-01  3.517621827355E-01
C81 -1.232389472769E-01  2.218034004506E-02 -1.482378172645E-01
C82  1.232389472769E-01  4.778196599549E-01  3.517621827355E-01
C83 -1.232389472769E-01 -2.218034004506E-02  1.482378172645E-01
C84  1.232389472769E-01 -4.778196599549E-01 -3.517621827355E-01
H85  9.217027603229E-02 -4.439141996625E-01  1.371236492302E-01
H86 -9.217027603229E-02 -5.608580033751E-02 -3.628763507698E-01
H87  9.217027603229E-02  4.439141996625E-01 -1.371236492302E-01
H88 -9.217027603229E-02  5.608580033751E-02  3.628763507698E-01
H89 -9.217027603229E-02  4.439141996625E-01 -1.371236492302E-01
H90  9.217027603229E-02  5.608580033751E-02  3.628763507698E-01
H91 -9.217027603229E-02 -4.439141996625E-01  1.371236492302E-01
H92  9.217027603229E-02 -5.608580033751E-02 -3.628763507698E-01
H93  4.621261107825E-02  3.022163699718E-01  2.106559807884E-01
H94 -4.621261107825E-02  1.977836300282E-01 -2.893440192116E-01
H95  4.621261107825E-02 -3.022163699718E-01 -2.106559807884E-01
H96 -4.621261107825E-02 -1.977836300282E-01  2.893440192116E-01
H97 -4.621261107825E-02 -3.022163699718E-01 -2.106559807884E-01
H98  4.621261107825E-02 -1.977836300282E-01  2.893440192116E-01
H99 -4.621261107825E-02  3.022163699718E-01  2.106559807884E-01
H100  4.621261107825E-02  1.977836300282E-01 -2.893440192116E-01
H101  1.313696389522E-01 -3.346486242941E-01 -2.890493919983E-02
H102 -1.313696389522E-01 -1.653513757059E-01  4.710950608002E-01
H103  1.313696389522E-01  3.346486242941E-01  2.890493919983E-02
H104 -1.313696389522E-01  1.653513757059E-01 -4.710950608002E-01
H105 -1.313696389522E-01  3.346486242941E-01  2.890493919983E-02
H106  1.313696389522E-01  1.653513757059E-01 -4.710950608002E-01
H107 -1.313696389522E-01 -3.346486242941E-01 -2.890493919983E-02
H108  1.313696389522E-01 -1.653513757059E-01  4.710950608002E-01
H109  2.186015724426E-01 -3.433920063811E-01  2.664392882851E-02
H110 -2.186015724426E-01 -1.566079936189E-01 -4.733560711715E-01
H111  2.186015724426E-01  3.433920063811E-01 -2.664392882851E-02
H112 -2.186015724426E-01  1.566079936189E-01  4.733560711715E-01
H113 -2.186015724426E-01  3.433920063811E-01 -2.664392882851E-02
H114  2.186015724426E-01  1.566079936189E-01  4.733560711715E-01
H115 -2.186015724426E-01 -3.433920063811E-01  2.664392882851E-02
H116  2.186015724426E-01 -1.566079936189E-01 -4.733560711715E-01
H117  2.456181429676E-01 -1.430507332850E-01  1.585368346955E-01
H118 -2.456181429676E-01 -3.569492667150E-01 -3.414631653045E-01
H119  2.456181429676E-01  1.430507332850E-01 -1.585368346955E-01
H120 -2.456181429676E-01  3.569492667150E-01  3.414631653045E-01
H121 -2.456181429676E-01  1.430507332850E-01 -1.585368346955E-01
H122  2.456181429676E-01  3.569492667150E-01  3.414631653045E-01
H123 -2.456181429676E-01 -1.430507332850E-01  1.585368346955E-01
H124  2.456181429676E-01 -3.569492667150E-01 -3.414631653045E-01
H125  1.836875390279E-01  6.551823029489E-02  2.365380465469E-01
H126 -1.836875390279E-01  4.344817697051E-01 -2.634619534531E-01
H127  1.836875390279E-01 -6.551823029489E-02 -2.365380465469E-01
H128 -1.836875390279E-01 -4.344817697051E-01  2.634619534531E-01
H129 -1.836875390279E-01 -6.551823029489E-02 -2.365380465469E-01
H130  1.836875390279E-01 -4.344817697051E-01  2.634619534531E-01
H131 -1.836875390279E-01  6.551823029489E-02  2.365380465469E-01
H132  1.836875390279E-01  4.344817697051E-01 -2.634619534531E-01
H133  9.630071214819E-02  6.613409986850E-02  1.832165150360E-01
H134 -9.630071214819E-02  4.338659001315E-01 -3.167834849640E-01
H135  9.630071214819E-02 -6.613409986850E-02 -1.832165150360E-01
H136 -9.630071214819E-02 -4.338659001315E-01  3.167834849640E-01
H137 -9.630071214819E-02 -6.613409986850E-02 -1.832165150360E-01
H138  9.630071214819E-02 -4.338659001315E-01  3.167834849640E-01
H139 -9.630071214819E-02  6.613409986850E-02  1.832165150360E-01
H140  9.630071214819E-02  4.338659001315E-01 -3.167834849640E-01


#===END

data_OPT_STEP_27

_symmetry_space_group_name_H-M 'P 1'
_cell_length_a     26.78900000
_cell_length_b      7.17000000
_cell_length_c     14.21100000
_cell_angle_alpha   90.000000
_cell_angle_beta   90.000000
_cell_angle_gamma   90.000000

loop_
_atom_site_label
_atom_site_fract_x
_atom_site_fract_y
_atom_site_fract_z
C1  2.740836471453E-02  3.465398901965E-19 -2.862531849506E-20
C2 -2.740836471453E-02  5.000000000000E-01 -5.000000000000E-01
C3 -2.740836471453E-02 -3.837830040733E-19 -2.862531849506E-20
C4  2.740836471453E-02  5.000000000000E-01 -5.000000000000E-01
C5  5.319286254844E-02 -1.427375192000E-01  4.962672389176E-02
C6 -5.319286254844E-02 -3.572624808000E-01 -4.503732761082E-01
C7  5.319286254844E-02  1.427375192000E-01 -4.962672389176E-02
C8 -5.319286254844E-02  3.572624808000E-01  4.503732761082E-01
C9 -5.319286254844E-02  1.427375192000E-01 -4.962672389176E-02
C10  5.319286254844E-02  3.572624808000E-01  4.503732761082E-01
C11 -5.319286254844E-02 -1.427375192000E-01  4.962672389176E-02
C12  5.319286254844E-02 -3.572624808000E-01 -4.503732761082E-01
C13  2.686971303372E-02 -2.927236746070E-01  8.857582198307E-02
C14 -2.686971303372E-02 -2.072763253930E-01 -4.114241780169E-01
C15  2.686971303372E-02  2.927236746070E-01 -8.857582198307E-02
C16 -2.686971303372E-02  2.072763253930E-01  4.114241780169E-01
C17 -2.686971303372E-02  2.927236746070E-01 -8.857582198307E-02
C18  2.686971303372E-02  2.072763253930E-01  4.114241780169E-01
C19 -2.686971303372E-02 -2.927236746070E-01  8.857582198307E-02
C20  2.686971303372E-02 -2.072763253930E-01 -4.114241780169E-01
C21  5.190480244660E-02 -4.438573371239E-01  1.347993309148E-01
C22 -5.190480244660E-02 -5.614266287612E-02 -3.652006690852E-01
C23  5.190480244660E-02  4.438573371239E-01 -1.347993309148E-01
C24 -5.190480244660E-02  5.614266287612E-02  3.652006690852E-01
C25 -5.190480244660E-02  4.438573371239E-01 -1.347993309148E-01
C26  5.190480244660E-02  5.614266287612E-02  3.652006690852E-01
C27 -5.190480244660E-02 -4.438573371239E-01  1.347993309148E-01
C28  5.190480244660E-02 -5.614266287612E-02 -3.652006690852E-01
C29  2.644138344254E-02  4.141807660322E-01  1.760300095315E-01
C30 -2.644138344254E-02  8.581923396784E-02 -3.239699904685E-01
C31  2.644138344254E-02 -4.141807660322E-01 -1.760300095315E-01
C32 -2.644138344254E-02 -8.581923396784E-02  3.239699904685E-01
C33 -2.644138344254E-02 -4.141807660322E-01 -1.760300095315E-01
C34  2.644138344254E-02 -8.581923396784E-02  3.239699904685E-01
C35 -2.644138344254E-02  4.141807660322E-01  1.760300095315E-01
C36  2.644138344254E-02  8.581923396784E-02 -3.239699904685E-01
C37  1.076350945679E-01 -1.334434279413E-01  7.322678281547E-02
C38 -1.076350945679E-01 -3.665565720587E-01 -4.267732171845E-01
C39  1.076350945679E-01  1.334434279413E-01 -7.322678281547E-02
C40 -1.076350945679E-01  3.665565720587E-01  4.267732171845E-01
C41 -1.076350945679E-01  1.334434279413E-01 -7.322678281547E-02
C42  1.076350945679E-01  3.665565720587E-01  4.267732171845E-01
C43 -1.076350945679E-01 -1.334434279413E-01  7.322678281547E-02
C44  1.076350945679E-01 -3.665565720587E-01 -4.267732171845E-01
C45  1.428057599082E-01 -2.480562733606E-01  2.962519410236E-02
C46 -1.428057599082E-01 -2.519437266394E-01 -4.703748058976E-01
C47  1.428057599082E-01  2.480562733606E-01 -2.962519410236E-02
C48 -1.428057599082E-01  2.519437266394E-01  4.703748058976E-01
C49 -1.428057599082E-01  2.480562733606E-01 -2.962519410236E-02
C50  1.428057599082E-01  2.519437266394E-01  4.703748058976E-01
C51 -1.428057599082E-01 -2.480562733606E-01  2.962519410236E-02
C52  1.428057599082E-01 -2.519437266394E-01 -4.703748058976E-01
C53  1.919293913394E-01 -2.521668476209E-01  6.058663865138E-02
C54 -1.919293913394E-01 -2.478331523791E-01 -4.394133613486E-01
C55  1.919293913394E-01  2.521668476209E-01 -6.058663865138E-02
C56 -1.919293913394E-01  2.478331523791E-01  4.394133613486E-01
C57 -1.919293913394E-01  2.521668476209E-01 -6.058663865138E-02
C58  1.919293913394E-01  2.478331523791E-01  4.394133613486E-01
C59 -1.919293913394E-01 -2.521668476209E-01  6.058663865138E-02
C60  1.919293913394E-01 -2.478331523791E-01 -4.394133613486E-01
C61  2.071399199354E-01 -1.395451874761E-01  1.350460975035E-01
C62 -2.071399199354E-01 -3.604548125239E-01 -3.649539024965E-01
C63  2.071399199354E-01  1.395451874761E-01 -1.350460975035E-01
C64 -2.071399199354E-01  3.604548125239E-01  3.649539024965E-01
C65 -2.071399199354E-01  1.395451874761E-01 -1.350460975035E-01
C66  2.071399199354E-01  3.604548125239E-01  3.649539024965E-01
C67 -2.071399199354E-01 -1.395451874761E-01  1.350460975035E-01
C68  2.071399199354E-01 -3.604548125239E-01 -3.649539024965E-01
C69  1.725438184938E-01 -2.371955886375E-02  1.786978771086E-01
C70 -1.725438184938E-01 -4.762804411362E-01 -3.213021228914E-01
C71  1.725438184938E-01  2.371955886375E-02 -1.786978771086E-01
C72 -1.725438184938E-01  4.762804411362E-01  3.213021228914E-01
C73 -1.725438184938E-01  2.371955886375E-02 -1.786978771086E-01
C74  1.725438184938E-01  4.762804411362E-01  3.213021228914E-01
C75 -1.725438184938E-01 -2.371955886375E-02  1.786978771086E-01
C76  1.725438184938E-01 -4.762804411362E-01 -3.213021228914E-01
C77  1.232308775953E-01 -2.213038455049E-02  1.482347791469E-01
C78 -1.232308775953E-01 -4.778696154495E-01 -3.517652208531E-01
C79  1.232308775953E-01  2.213038455049E-02 -1.482347791469E-01
C80 -1.232308775953E-01  4.778696154495E-01  3.517652208531E-01
C81 -1.232308775953E-01  2.213038455049E-02 -1.482347791469E-01
C82  1.232308775953E-01  4.778696154495E-01  3.517652208531E-01
C83 -1.232308775953E-01 -2.213038455049E-02  1.482347791469E-01
C84  1.232308775953E-01 -4.778696154495E-01 -3.517652208531E-01
H85  9.217054057229E-02 -4.439306820346E-01  1.370858716845E-01
H86 -9.217054057229E-02 -5.606931796542E-02 -3.629141283155E-01
H87  9.217054057229E-02  4.439306820346E-01 -1.370858716845E-01
H88 -9.217054057229E-02  5.606931796542E-02  3.629141283155E-01
H89 -9.217054057229E-02  4.439306820346E-01 -1.370858716845E-01
H90  9.217054057229E-02  5.606931796542E-02  3.629141283155E-01
H91 -9.217054057229E-02 -4.439306820346E-01  1.370858716845E-01
H92  9.217054057229E-02 -5.606931796542E-02 -3.629141283155E-01
H93  4.621202778887E-02  3.021968158915E-01  2.106647896955E-01
H94 -4.621202778887E-02  1.978031841085E-01 -2.893352103045E-01
H95  4.621202778887E-02 -3.021968158915E-01 -2.106647896955E-01
H96 -4.621202778887E-02 -1.978031841085E-01  2.893352103045E-01
H97 -4.621202778887E-02 -3.021968158915E-01 -2.106647896955E-01
H98  4.621202778887E-02 -1.978031841085E-01  2.893352103045E-01
H99 -4.621202778887E-02  3.021968158915E-01  2.106647896955E-01
H100  4.621202778887E-02  1.978031841085E-01 -2.893352103045E-01
H101  1.313736569987E-01 -3.346919471436E-01 -2.886602749084E-02
H102 -1.313736569987E-01 -1.653080528564E-01  4.711339725092E-01
H103  1.313736569987E-01  3.346919471436E-01  2.886602749084E-02
H104 -1.313736569987E-01  1.653080528564E-01 -4.711339725092E-01
H105 -1.313736569987E-01  3.346919471436E-01  2.886602749084E-02
H106  1.313736569987E-01  1.653080528564E-01 -4.711339725092E-01
H107 -1.313736569987E-01 -3.346919471436E-01 -2.886602749084E-02
H108  1.313736569987E-01 -1.653080528564E-01  4.711339725092E-01
H109  2.186074972379E-01 -3.433415543201E-01  2.666597694005E-02
H110 -2.186074972379E-01 -1.566584456799E-01 -4.733340230599E-01
H111  2.186074972379E-01  3.433415543201E-01 -2.666597694005E-02
H112 -2.186074972379E-01  1.566584456799E-01  4.733340230599E-01
H113 -2.186074972379E-01  3.433415543201E-01 -2.666597694005E-02
H114  2.186074972379E-01  1.566584456799E-01  4.733340230599E-01
H115 -2.186074972379E-01 -3.433415543201E-01  2.666597694005E-02
H116  2.186074972379E-01 -1.566584456799E-01 -4.733340230599E-01
H117  2.456130752600E-01 -1.429843166065E-01  1.585880622348E-01
H118 -2.456130752600E-01 -3.570156833935E-01 -3.414119377652E-01
H119  2.456130752600E-01  1.429843166065E-01 -1.585880622348E-01
H120 -2.456130752600E-01  3.570156833935E-01  3.414119377652E-01
H121 -2.456130752600E-01  1.429843166065E-01 -1.585880622348E-01
H122  2.456130752600E-01  3.570156833935E-01  3.414119377652E-01
H123 -2.456130752600E-01 -1.429843166065E-01  1.585880622348E-01
H124  2.456130752600E-01 -3.570156833935E-01 -3.414119377652E-01
H125  1.836718646958E-01  6.555218328247E-02  2.365618531215E-01
H126 -1.836718646958E-01  4.344478167175E-01 -2.634381468785E-01
H127  1.836718646958E-01 -6.555218328247E-02 -2.365618531215E-01
H128 -1.836718646958E-01 -4.344478167175E-01  2.634381468785E-01
H129 -1.836718646958E-01 -6.555218328247E-02 -2.365618531215E-01
H130  1.836718646958E-01 -4.344478167175E-01  2.634381468785E-01
H131 -1.836718646958E-01  6.555218328247E-02  2.365618531215E-01
H132  1.836718646958E-01  4.344478167175E-01 -2.634381468785E-01
H133  9.629267296021E-02  6.623765920731E-02  1.831764502518E-01
H134 -9.629267296021E-02  4.337623407927E-01 -3.168235497482E-01
H135  9.629267296021E-02 -6.623765920731E-02 -1.831764502518E-01
H136 -9.629267296021E-02 -4.337623407927E-01  3.168235497482E-01
H137 -9.629267296021E-02 -6.623765920731E-02 -1.831764502518E-01
H138  9.629267296021E-02 -4.337623407927E-01  3.168235497482E-01
H139 -9.629267296021E-02  6.623765920731E-02  1.831764502518E-01
H140  9.629267296021E-02  4.337623407927E-01 -3.168235497482E-01


#===END

data_OPT_STEP_28

_symmetry_space_group_name_H-M 'P 1'
_cell_length_a     26.78900000
_cell_length_b      7.17000000
_cell_length_c     14.21100000
_cell_angle_alpha   90.000000
_cell_angle_beta   90.000000
_cell_angle_gamma   90.000000

loop_
_atom_site_label
_atom_site_fract_x
_atom_site_fract_y
_atom_site_fract_z
C1  2.740840983980E-02  3.436946782134E-19 -2.889317650859E-20
C2 -2.740840983980E-02  5.000000000000E-01 -5.000000000000E-01
C3 -2.740840983980E-02 -3.866341321088E-19 -2.889317650859E-20
C4  2.740840983980E-02  5.000000000000E-01 -5.000000000000E-01
C5  5.319333537495E-02 -1.427641377900E-01  4.961244751907E-02
C6 -5.319333537495E-02 -3.572358622100E-01 -4.503875524809E-01
C7  5.319333537495E-02  1.427641377900E-01 -4.961244751907E-02
C8 -5.319333537495E-02  3.572358622100E-01  4.503875524809E-01
C9 -5.319333537495E-02  1.427641377900E-01 -4.961244751907E-02
C10  5.319333537495E-02  3.572358622100E-01  4.503875524809E-01
C11 -5.319333537495E-02 -1.427641377900E-01  4.961244751907E-02
C12  5.319333537495E-02 -3.572358622100E-01 -4.503875524809E-01
C13  2.686897672838E-02 -2.927283092644E-01  8.857740914640E-02
C14 -2.686897672838E-02 -2.072716907356E-01 -4.114225908536E-01
C15  2.686897672838E-02  2.927283092644E-01 -8.857740914640E-02
C16 -2.686897672838E-02  2.072716907356E-01  4.114225908536E-01
C17 -2.686897672838E-02  2.927283092644E-01 -8.857740914640E-02
C18  2.686897672838E-02  2.072716907356E-01  4.114225908536E-01
C19 -2.686897672838E-02 -2.927283092644E-01  8.857740914640E-02
C20  2.686897672838E-02 -2.072716907356E-01 -4.114225908536E-01
C21  5.190488131663E-02 -4.438668013791E-01  1.347987980729E-01
C22 -5.190488131663E-02 -5.613319862089E-02 -3.652012019271E-01
C23  5.190488131663E-02  4.438668013791E-01 -1.347987980729E-01
C24 -5.190488131663E-02  5.613319862089E-02  3.652012019271E-01
C25 -5.190488131663E-02  4.438668013791E-01 -1.347987980729E-01
C26  5.190488131663E-02  5.613319862089E-02  3.652012019271E-01
C27 -5.190488131663E-02 -4.438668013791E-01  1.347987980729E-01
C28  5.190488131663E-02 -5.613319862089E-02 -3.652012019271E-01
C29  2.644181111585E-02  4.141761734796E-01  1.760315403708E-01
C30 -2.644181111585E-02  8.582382652043E-02 -3.239684596292E-01
C31  2.644181111585E-02 -4.141761734796E-01 -1.760315403708E-01
C32 -2.644181111585E-02 -8.582382652043E-02  3.239684596292E-01
C33 -2.644181111585E-02 -4.141761734796E-01 -1.760315403708E-01
C34  2.644181111585E-02 -8.582382652043E-02  3.239684596292E-01
C35 -2.644181111585E-02  4.141761734796E-01  1.760315403708E-01
C36  2.644181111585E-02  8.582382652043E-02 -3.239684596292E-01
C37  1.076310726955E-01 -1.334381366494E-01  7.323837650796E-02
C38 -1.076310726955E-01 -3.665618633506E-01 -4.267616234920E-01
C39  1.076310726955E-01  1.334381366494E-01 -7.323837650796E-02
C40 -1.076310726955E-01  3.665618633506E-01  4.267616234920E-01
C41 -1.076310726955E-01  1.334381366494E-01 -7.323837650796E-02
C42  1.076310726955E-01  3.665618633506E-01  4.267616234920E-01
C43 -1.076310726955E-01 -1.334381366494E-01  7.323837650796E-02
C44  1.076310726955E-01 -3.665618633506E-01 -4.267616234920E-01
C45  1.428139963116E-01 -2.480562857822E-01  2.967589032868E-02
C46 -1.428139963116E-01 -2.519437142178E-01 -4.703241096713E-01
C47  1.428139963116E-01  2.480562857822E-01 -2.967589032868E-02
C48 -1.428139963116E-01  2.519437142178E-01  4.703241096713E-01
C49 -1.428139963116E-01  2.480562857822E-01 -2.967589032868E-02
C50  1.428139963116E-01  2.519437142178E-01  4.703241096713E-01
C51 -1.428139963116E-01 -2.480562857822E-01  2.967589032868E-02
C52  1.428139963116E-01 -2.519437142178E-01 -4.703241096713E-01
C53  1.919368254742E-01 -2.520661532525E-01  6.064374492341E-02
C54 -1.919368254742E-01 -2.479338467475E-01 -4.393562550766E-01
C55  1.919368254742E-01  2.520661532525E-01 -6.064374492341E-02
C56 -1.919368254742E-01  2.479338467475E-01  4.393562550766E-01
C57 -1.919368254742E-01  2.520661532525E-01 -6.064374492341E-02
C58  1.919368254742E-01  2.479338467475E-01  4.393562550766E-01
C59 -1.919368254742E-01 -2.520661532525E-01  6.064374492341E-02
C60  1.919368254742E-01 -2.479338467475E-01 -4.393562550766E-01
C61  2.071288841787E-01 -1.393905009595E-01  1.350930505427E-01
C62 -2.071288841787E-01 -3.606094990405E-01 -3.649069494574E-01
C63  2.071288841787E-01  1.393905009595E-01 -1.350930505427E-01
C64 -2.071288841787E-01  3.606094990405E-01  3.649069494574E-01
C65 -2.071288841787E-01  1.393905009595E-01 -1.350930505427E-01
C66  2.071288841787E-01  3.606094990405E-01  3.649069494574E-01
C67 -2.071288841787E-01 -1.393905009595E-01  1.350930505427E-01
C68  2.071288841787E-01 -3.606094990405E-01 -3.649069494574E-01
C69  1.725188548160E-01 -2.357452078806E-02  1.787128110779E-01
C70 -1.725188548160E-01 -4.764254792119E-01 -3.212871889221E-01
C71  1.725188548160E-01  2.357452078806E-02 -1.787128110779E-01
C72 -1.725188548160E-01  4.764254792119E-01  3.212871889221E-01
C73 -1.725188548160E-01  2.357452078806E-02 -1.787128110779E-01
C74  1.725188548160E-01  4.764254792119E-01  3.212871889221E-01
C75 -1.725188548160E-01 -2.357452078806E-02  1.787128110779E-01
C76  1.725188548160E-01 -4.764254792119E-01 -3.212871889221E-01
C77  1.232110247298E-01 -2.204279183529E-02  1.482252767212E-01
C78 -1.232110247298E-01 -4.779572081647E-01 -3.517747232788E-01
C79  1.232110247298E-01  2.204279183529E-02 -1.482252767212E-01
C80 -1.232110247298E-01  4.779572081647E-01  3.517747232788E-01
C81 -1.232110247298E-01  2.204279183529E-02 -1.482252767212E-01
C82  1.232110247298E-01  4.779572081647E-01  3.517747232788E-01
C83 -1.232110247298E-01 -2.204279183529E-02  1.482252767212E-01
C84  1.232110247298E-01 -4.779572081647E-01 -3.517747232788E-01
H85  9.217132152605E-02 -4.439367614257E-01  1.370470925043E-01
H86 -9.217132152605E-02 -5.606323857427E-02 -3.629529074957E-01
H87  9.217132152605E-02  4.439367614257E-01 -1.370470925043E-01
H88 -9.217132152605E-02  5.606323857427E-02  3.629529074957E-01
H89 -9.217132152605E-02  4.439367614257E-01 -1.370470925043E-01
H90  9.217132152605E-02  5.606323857427E-02  3.629529074957E-01
H91 -9.217132152605E-02 -4.439367614257E-01  1.370470925043E-01
H92  9.217132152605E-02 -5.606323857427E-02 -3.629529074957E-01
H93  4.621025664922E-02  3.021779138097E-01  2.106580442316E-01
H94 -4.621025664922E-02  1.978220861903E-01 -2.893419557684E-01
H95  4.621025664922E-02 -3.021779138097E-01 -2.106580442316E-01
H96 -4.621025664922E-02 -1.978220861903E-01  2.893419557684E-01
H97 -4.621025664922E-02 -3.021779138097E-01 -2.106580442316E-01
H98  4.621025664922E-02 -1.978220861903E-01  2.893419557684E-01
H99 -4.621025664922E-02  3.021779138097E-01  2.106580442316E-01
H100  4.621025664922E-02  1.978220861903E-01 -2.893419557684E-01
H101  1.313959975542E-01 -3.347285390492E-01 -2.881149606599E-02
H102 -1.313959975542E-01 -1.652714609508E-01  4.711885039340E-01
H103  1.313959975542E-01  3.347285390492E-01  2.881149606599E-02
H104 -1.313959975542E-01  1.652714609508E-01 -4.711885039340E-01
H105 -1.313959975542E-01  3.347285390492E-01  2.881149606599E-02
H106  1.313959975542E-01  1.652714609508E-01 -4.711885039340E-01
H107 -1.313959975542E-01 -3.347285390492E-01 -2.881149606599E-02
H108  1.313959975542E-01 -1.652714609508E-01  4.711885039340E-01
H109  2.186271520825E-01 -3.432162514306E-01  2.674006084648E-02
H110 -2.186271520825E-01 -1.567837485694E-01 -4.732599391535E-01
H111  2.186271520825E-01  3.432162514306E-01 -2.674006084648E-02
H112 -2.186271520825E-01  1.567837485694E-01  4.732599391535E-01
H113 -2.186271520825E-01  3.432162514306E-01 -2.674006084648E-02
H114  2.186271520825E-01  1.567837485694E-01  4.732599391535E-01
H115 -2.186271520825E-01 -3.432162514306E-01  2.674006084648E-02
H116  2.186271520825E-01 -1.567837485694E-01 -4.732599391535E-01
H117  2.456028886630E-01 -1.427272174291E-01  1.586376708678E-01
H118 -2.456028886630E-01 -3.572727825709E-01 -3.413623291322E-01
H119  2.456028886630E-01  1.427272174291E-01 -1.586376708678E-01
H120 -2.456028886630E-01  3.572727825709E-01  3.413623291322E-01
H121 -2.456028886630E-01  1.427272174291E-01 -1.586376708678E-01
H122  2.456028886630E-01  3.572727825709E-01  3.413623291322E-01
H123 -2.456028886630E-01 -1.427272174291E-01  1.586376708678E-01
H124  2.456028886630E-01 -3.572727825709E-01 -3.413623291322E-01
H125  1.836363809722E-01  6.574516977569E-02  2.365664895649E-01
H126 -1.836363809722E-01  4.342548302243E-01 -2.634335104351E-01
H127  1.836363809722E-01 -6.574516977569E-02 -2.365664895649E-01
H128 -1.836363809722E-01 -4.342548302243E-01  2.634335104351E-01
H129 -1.836363809722E-01 -6.574516977569E-02 -2.365664895649E-01
H130  1.836363809722E-01 -4.342548302243E-01  2.634335104351E-01
H131 -1.836363809722E-01  6.574516977569E-02  2.365664895649E-01
H132  1.836363809722E-01  4.342548302243E-01 -2.634335104351E-01
H133  9.626338874079E-02  6.636741321420E-02  1.831136401611E-01
H134 -9.626338874079E-02  4.336325867858E-01 -3.168863598389E-01
H135  9.626338874079E-02 -6.636741321420E-02 -1.831136401611E-01
H136 -9.626338874079E-02 -4.336325867858E-01  3.168863598389E-01
H137 -9.626338874079E-02 -6.636741321420E-02 -1.831136401611E-01
H138  9.626338874079E-02 -4.336325867858E-01  3.168863598389E-01
H139 -9.626338874079E-02  6.636741321420E-02  1.831136401611E-01
H140  9.626338874079E-02  4.336325867858E-01 -3.168863598389E-01


#===END

data_OPT_STEP_29

_symmetry_space_group_name_H-M 'P 1'
_cell_length_a     26.78900000
_cell_length_b      7.17000000
_cell_length_c     14.21100000
_cell_angle_alpha   90.000000
_cell_angle_beta   90.000000
_cell_angle_gamma   90.000000

loop_
_atom_site_label
_atom_site_fract_x
_atom_site_fract_y
_atom_site_fract_z
C1  2.740745391867E-02  3.373261261750E-19 -2.971618498586E-20
C2 -2.740745391867E-02  5.000000000000E-01 -5.000000000000E-01
C3 -2.740745391867E-02 -3.928773601471E-19 -2.971618498586E-20
C4  2.740745391867E-02  5.000000000000E-01 -5.000000000000E-01
C5  5.319226342362E-02 -1.427665871265E-01  4.961155493486E-02
C6 -5.319226342362E-02 -3.572334128735E-01 -4.503884450651E-01
C7  5.319226342362E-02  1.427665871265E-01 -4.961155493486E-02
C8 -5.319226342362E-02  3.572334128735E-01  4.503884450651E-01
C9 -5.319226342362E-02  1.427665871265E-01 -4.961155493486E-02
C10  5.319226342362E-02  3.572334128735E-01  4.503884450651E-01
C11 -5.319226342362E-02 -1.427665871265E-01  4.961155493486E-02
C12  5.319226342362E-02 -3.572334128735E-01 -4.503884450651E-01
C13  2.686924475745E-02 -2.927709557466E-01  8.854191802017E-02
C14 -2.686924475745E-02 -2.072290442534E-01 -4.114580819798E-01
C15  2.686924475745E-02  2.927709557466E-01 -8.854191802017E-02
C16 -2.686924475745E-02  2.072290442534E-01  4.114580819798E-01
C17 -2.686924475745E-02  2.927709557466E-01 -8.854191802017E-02
C18  2.686924475745E-02  2.072290442534E-01  4.114580819798E-01
C19 -2.686924475745E-02 -2.927709557466E-01  8.854191802017E-02
C20  2.686924475746E-02 -2.072290442534E-01 -4.114580819798E-01
C21  5.190557847189E-02 -4.438797590470E-01  1.347903743461E-01
C22 -5.190557847189E-02 -5.612024095303E-02 -3.652096256539E-01
C23  5.190557847189E-02  4.438797590470E-01 -1.347903743461E-01
C24 -5.190557847189E-02  5.612024095303E-02  3.652096256539E-01
C25 -5.190557847189E-02  4.438797590470E-01 -1.347903743461E-01
C26  5.190557847189E-02  5.612024095303E-02  3.652096256539E-01
C27 -5.190557847189E-02 -4.438797590470E-01  1.347903743461E-01
C28  5.190557847189E-02 -5.612024095303E-02 -3.652096256539E-01
C29  2.644209649370E-02  4.142339306642E-01  1.760817284173E-01
C30 -2.644209649370E-02  8.576606933581E-02 -3.239182715827E-01
C31  2.644209649370E-02 -4.142339306642E-01 -1.760817284173E-01
C32 -2.644209649370E-02 -8.576606933581E-02  3.239182715827E-01
C33 -2.644209649370E-02 -4.142339306642E-01 -1.760817284173E-01
C34  2.644209649370E-02 -8.576606933581E-02  3.239182715827E-01
C35 -2.644209649370E-02  4.142339306642E-01  1.760817284173E-01
C36  2.644209649370E-02  8.576606933581E-02 -3.239182715827E-01
C37  1.076260515760E-01 -1.333742553290E-01  7.326276251193E-02
C38 -1.076260515760E-01 -3.666257446710E-01 -4.267372374881E-01
C39  1.076260515760E-01  1.333742553290E-01 -7.326276251193E-02
C40 -1.076260515760E-01  3.666257446710E-01  4.267372374881E-01
C41 -1.076260515760E-01  1.333742553290E-01 -7.326276251193E-02
C42  1.076260515760E-01  3.666257446710E-01  4.267372374881E-01
C43 -1.076260515760E-01 -1.333742553290E-01  7.326276251193E-02
C44  1.076260515760E-01 -3.666257446710E-01 -4.267372374881E-01
C45  1.428286247025E-01 -2.480212412469E-01  2.977278312497E-02
C46 -1.428286247025E-01 -2.519787587531E-01 -4.702272168750E-01
C47  1.428286247025E-01  2.480212412469E-01 -2.977278312497E-02
C48 -1.428286247025E-01  2.519787587531E-01  4.702272168750E-01
C49 -1.428286247025E-01  2.480212412469E-01 -2.977278312497E-02
C50  1.428286247025E-01  2.519787587531E-01  4.702272168750E-01
C51 -1.428286247025E-01 -2.480212412469E-01  2.977278312497E-02
C52  1.428286247025E-01 -2.519787587531E-01 -4.702272168750E-01
C53  1.919464299171E-01 -2.519148546347E-01  6.077716380124E-02
C54 -1.919464299171E-01 -2.480851453653E-01 -4.392228361988E-01
C55  1.919464299171E-01  2.519148546347E-01 -6.077716380124E-02
C56 -1.919464299171E-01  2.480851453653E-01  4.392228361988E-01
C57 -1.919464299171E-01  2.519148546347E-01 -6.077716380124E-02
C58  1.919464299171E-01  2.480851453653E-01  4.392228361988E-01
C59 -1.919464299171E-01 -2.519148546347E-01  6.077716380124E-02
C60  1.919464299171E-01 -2.480851453653E-01 -4.392228361988E-01
C61  2.071132604349E-01 -1.390753493033E-01  1.351839488211E-01
C62 -2.071132604349E-01 -3.609246506967E-01 -3.648160511789E-01
C63  2.071132604349E-01  1.390753493033E-01 -1.351839488211E-01
C64 -2.071132604349E-01  3.609246506967E-01  3.648160511789E-01
C65 -2.071132604349E-01  1.390753493033E-01 -1.351839488211E-01
C66  2.071132604349E-01  3.609246506967E-01  3.648160511789E-01
C67 -2.071132604349E-01 -1.390753493033E-01  1.351839488211E-01
C68  2.071132604349E-01 -3.609246506967E-01 -3.648160511789E-01
C69  1.724839673097E-01 -2.322482855010E-02  1.787289631937E-01
C70 -1.724839673097E-01 -4.767751714499E-01 -3.212710368063E-01
C71  1.724839673097E-01  2.322482855010E-02 -1.787289631937E-01
C72 -1.724839673097E-01  4.767751714499E-01  3.212710368063E-01
C73 -1.724839673097E-01  2.322482855010E-02 -1.787289631937E-01
C74  1.724839673097E-01  4.767751714499E-01  3.212710368063E-01
C75 -1.724839673097E-01 -2.322482855010E-02  1.787289631937E-01
C76  1.724839673097E-01 -4.767751714499E-01 -3.212710368063E-01
C77  1.231823292249E-01 -2.181554398077E-02  1.482073143604E-01
C78 -1.231823292249E-01 -4.781844560192E-01 -3.517926856396E-01
C79  1.231823292249E-01  2.181554398077E-02 -1.482073143604E-01
C80 -1.231823292249E-01  4.781844560192E-01  3.517926856396E-01
C81 -1.231823292249E-01  2.181554398077E-02 -1.482073143604E-01
C82  1.231823292249E-01  4.781844560192E-01  3.517926856396E-01
C83 -1.231823292249E-01 -2.181554398077E-02  1.482073143604E-01
C84  1.231823292249E-01 -4.781844560192E-01 -3.517926856396E-01
H85  9.217296696110E-02 -4.439611296709E-01  1.370021678016E-01
H86 -9.217296696110E-02 -5.603887032913E-02 -3.629978321984E-01
H87  9.217296696110E-02  4.439611296709E-01 -1.370021678016E-01
H88 -9.217296696110E-02  5.603887032913E-02  3.629978321984E-01
H89 -9.217296696110E-02  4.439611296709E-01 -1.370021678016E-01
H90  9.217296696110E-02  5.603887032913E-02  3.629978321984E-01
H91 -9.217296696110E-02 -4.439611296709E-01  1.370021678016E-01
H92  9.217296696110E-02 -5.603887032913E-02 -3.629978321984E-01
H93  4.620757192920E-02  3.022907720053E-01  2.107578328056E-01
H94 -4.620757192920E-02  1.977092279947E-01 -2.892421671944E-01
H95  4.620757192920E-02 -3.022907720053E-01 -2.107578328056E-01
H96 -4.620757192920E-02 -1.977092279947E-01  2.892421671944E-01
H97 -4.620757192920E-02 -3.022907720053E-01 -2.107578328056E-01
H98  4.620757192920E-02 -1.977092279947E-01  2.892421671944E-01
H99 -4.620757192920E-02  3.022907720053E-01  2.107578328056E-01
H100  4.620757192920E-02  1.977092279947E-01 -2.892421671944E-01
H101  1.314277589647E-01 -3.348439244290E-01 -2.867111423352E-02
H102 -1.314277589647E-01 -1.651560755710E-01  4.713288857665E-01
H103  1.314277589647E-01  3.348439244290E-01  2.867111423352E-02
H104 -1.314277589647E-01  1.651560755710E-01 -4.713288857665E-01
H105 -1.314277589647E-01  3.348439244290E-01  2.867111423352E-02
H106  1.314277589647E-01  1.651560755710E-01 -4.713288857665E-01
H107 -1.314277589647E-01 -3.348439244290E-01 -2.867111423352E-02
H108  1.314277589647E-01 -1.651560755710E-01  4.713288857665E-01
H109  2.186571595890E-01 -3.430494769351E-01  2.691653693767E-02
H110 -2.186571595890E-01 -1.569505230649E-01 -4.730834630623E-01
H111  2.186571595890E-01  3.430494769351E-01 -2.691653693767E-02
H112 -2.186571595890E-01  1.569505230649E-01  4.730834630623E-01
H113 -2.186571595890E-01  3.430494769351E-01 -2.691653693767E-02
H114  2.186571595890E-01  1.569505230649E-01  4.730834630623E-01
H115 -2.186571595890E-01 -3.430494769351E-01  2.691653693767E-02
H116  2.186571595890E-01 -1.569505230649E-01 -4.730834630623E-01
H117  2.455814072956E-01 -1.423311308522E-01  1.587698072543E-01
H118 -2.455814072956E-01 -3.576688691478E-01 -3.412301927457E-01
H119  2.455814072956E-01  1.423311308522E-01 -1.587698072543E-01
H120 -2.455814072956E-01  3.576688691478E-01  3.412301927457E-01
H121 -2.455814072956E-01  1.423311308522E-01 -1.587698072543E-01
H122  2.455814072956E-01  3.576688691478E-01  3.412301927457E-01
H123 -2.455814072956E-01 -1.423311308522E-01  1.587698072543E-01
H124  2.455814072956E-01 -3.576688691478E-01 -3.412301927457E-01
H125  1.835820798348E-01  6.619374366532E-02  2.365588503731E-01
H126 -1.835820798348E-01  4.338062563347E-01 -2.634411496269E-01
H127  1.835820798348E-01 -6.619374366532E-02 -2.365588503731E-01
H128 -1.835820798348E-01 -4.338062563347E-01  2.634411496269E-01
H129 -1.835820798348E-01 -6.619374366532E-02 -2.365588503731E-01
H130  1.835820798348E-01 -4.338062563347E-01  2.634411496269E-01
H131 -1.835820798348E-01  6.619374366532E-02  2.365588503731E-01
H132  1.835820798348E-01  4.338062563347E-01 -2.634411496269E-01
H133  9.621831162896E-02  6.664431555707E-02  1.830191925760E-01
H134 -9.621831162896E-02  4.333556844429E-01 -3.169808074240E-01
H135  9.621831162896E-02 -6.664431555707E-02 -1.830191925760E-01
H136 -9.621831162896E-02 -4.333556844429E-01  3.169808074240E-01
H137 -9.621831162896E-02 -6.664431555707E-02 -1.830191925760E-01
H138  9.621831162896E-02 -4.333556844429E-01  3.169808074240E-01
H139 -9.621831162896E-02  6.664431555707E-02  1.830191925760E-01
H140  9.621831162896E-02  4.333556844429E-01 -3.169808074240E-01


#===END

data_OPT_STEP_30

_symmetry_space_group_name_H-M 'P 1'
_cell_length_a     26.78900000
_cell_length_b      7.17000000
_cell_length_c     14.21100000
_cell_angle_alpha   90.000000
_cell_angle_beta   90.000000
_cell_angle_gamma   90.000000

loop_
_atom_site_label
_atom_site_fract_x
_atom_site_fract_y
_atom_site_fract_z
C1  2.740714404688E-02  3.357139539947E-19 -2.974694249708E-20
C2 -2.740714404688E-02  5.000000000000E-01 -5.000000000000E-01
C3 -2.740714404688E-02 -3.944489072463E-19 -2.974694249708E-20
C4  2.740714404688E-02  5.000000000000E-01 -5.000000000000E-01
C5  5.319259823764E-02 -1.427690557008E-01  4.960456996493E-02
C6 -5.319259823764E-02 -3.572309442992E-01 -4.503954300351E-01
C7  5.319259823764E-02  1.427690557008E-01 -4.960456996493E-02
C8 -5.319259823764E-02  3.572309442992E-01  4.503954300351E-01
C9 -5.319259823764E-02  1.427690557008E-01 -4.960456996493E-02
C10  5.319259823764E-02  3.572309442992E-01  4.503954300351E-01
C11 -5.319259823764E-02 -1.427690557008E-01  4.960456996493E-02
C12  5.319259823764E-02 -3.572309442992E-01 -4.503954300351E-01
C13  2.686972041360E-02 -2.927690005237E-01  8.854137211625E-02
C14 -2.686972041360E-02 -2.072309994763E-01 -4.114586278838E-01
C15  2.686972041360E-02  2.927690005237E-01 -8.854137211625E-02
C16 -2.686972041360E-02  2.072309994763E-01  4.114586278838E-01
C17 -2.686972041360E-02  2.927690005237E-01 -8.854137211625E-02
C18  2.686972041360E-02  2.072309994763E-01  4.114586278838E-01
C19 -2.686972041360E-02 -2.927690005237E-01  8.854137211625E-02
C20  2.686972041360E-02 -2.072309994763E-01 -4.114586278838E-01
C21  5.190618489900E-02 -4.438851752424E-01  1.347827534984E-01
C22 -5.190618489900E-02 -5.611482475759E-02 -3.652172465016E-01
C23  5.190618489900E-02  4.438851752424E-01 -1.347827534984E-01
C24 -5.190618489900E-02  5.611482475759E-02  3.652172465016E-01
C25 -5.190618489900E-02  4.438851752424E-01 -1.347827534984E-01
C26  5.190618489900E-02  5.611482475759E-02  3.652172465016E-01
C27 -5.190618489900E-02 -4.438851752424E-01  1.347827534984E-01
C28  5.190618489900E-02 -5.611482475759E-02 -3.652172465016E-01
C29  2.644216268063E-02  4.142165440378E-01  1.760618207563E-01
C30 -2.644216268063E-02  8.578345596222E-02 -3.239381792437E-01
C31  2.644216268063E-02 -4.142165440378E-01 -1.760618207563E-01
C32 -2.644216268063E-02 -8.578345596222E-02  3.239381792437E-01
C33 -2.644216268063E-02 -4.142165440378E-01 -1.760618207563E-01
C34  2.644216268063E-02 -8.578345596222E-02  3.239381792437E-01
C35 -2.644216268063E-02  4.142165440378E-01  1.760618207563E-01
C36  2.644216268063E-02  8.578345596222E-02 -3.239381792437E-01
C37  1.076252900476E-01 -1.333554113917E-01  7.326082946356E-02
C38 -1.076252900476E-01 -3.666445886083E-01 -4.267391705364E-01
C39  1.076252900476E-01  1.333554113917E-01 -7.326082946356E-02
C40 -1.076252900476E-01  3.666445886083E-01  4.267391705364E-01
C41 -1.076252900476E-01  1.333554113917E-01 -7.326082946356E-02
C42  1.076252900476E-01  3.666445886083E-01  4.267391705364E-01
C43 -1.076252900476E-01 -1.333554113917E-01  7.326082946356E-02
C44  1.076252900476E-01 -3.666445886083E-01 -4.267391705364E-01
C45  1.428327754637E-01 -2.480060069909E-01  2.978952864326E-02
C46 -1.428327754637E-01 -2.519939930091E-01 -4.702104713567E-01
C47  1.428327754637E-01  2.480060069909E-01 -2.978952864326E-02
C48 -1.428327754637E-01  2.519939930091E-01  4.702104713567E-01
C49 -1.428327754637E-01  2.480060069909E-01 -2.978952864326E-02
C50  1.428327754637E-01  2.519939930091E-01  4.702104713567E-01
C51 -1.428327754637E-01 -2.480060069909E-01  2.978952864326E-02
C52  1.428327754637E-01 -2.519939930091E-01 -4.702104713567E-01
C53  1.919484719612E-01 -2.518681441815E-01  6.080314722548E-02
C54 -1.919484719612E-01 -2.481318558185E-01 -4.391968527745E-01
C55  1.919484719612E-01  2.518681441815E-01 -6.080314722548E-02
C56 -1.919484719612E-01  2.481318558185E-01  4.391968527745E-01
C57 -1.919484719612E-01  2.518681441815E-01 -6.080314722548E-02
C58  1.919484719612E-01  2.481318558185E-01  4.391968527745E-01
C59 -1.919484719612E-01 -2.518681441815E-01  6.080314722548E-02
C60  1.919484719612E-01 -2.481318558185E-01 -4.391968527745E-01
C61  2.071092427502E-01 -1.389889064701E-01  1.351974604871E-01
C62 -2.071092427502E-01 -3.610110935299E-01 -3.648025395129E-01
C63  2.071092427502E-01  1.389889064701E-01 -1.351974604871E-01
C64 -2.071092427502E-01  3.610110935299E-01  3.648025395129E-01
C65 -2.071092427502E-01  1.389889064701E-01 -1.351974604871E-01
C66  2.071092427502E-01  3.610110935299E-01  3.648025395129E-01
C67 -2.071092427502E-01 -1.389889064701E-01  1.351974604871E-01
C68  2.071092427502E-01 -3.610110935299E-01 -3.648025395129E-01
C69  1.724753927842E-01 -2.313268760791E-02  1.787241808215E-01
C70 -1.724753927842E-01 -4.768673123921E-01 -3.212758191785E-01
C71  1.724753927842E-01  2.313268760791E-02 -1.787241808215E-01
C72 -1.724753927842E-01  4.768673123921E-01  3.212758191785E-01
C73 -1.724753927842E-01  2.313268760791E-02 -1.787241808215E-01
C74  1.724753927842E-01  4.768673123921E-01  3.212758191785E-01
C75 -1.724753927842E-01 -2.313268760791E-02  1.787241808215E-01
C76  1.724753927842E-01 -4.768673123921E-01 -3.212758191785E-01
C77  1.231746922467E-01 -2.175825237423E-02  1.481952393944E-01
C78 -1.231746922467E-01 -4.782417476258E-01 -3.518047606056E-01
C79  1.231746922467E-01  2.175825237423E-02 -1.481952393944E-01
C80 -1.231746922467E-01  4.782417476258E-01  3.518047606056E-01
C81 -1.231746922467E-01  2.175825237423E-02 -1.481952393944E-01
C82  1.231746922467E-01  4.782417476258E-01  3.518047606056E-01
C83 -1.231746922467E-01 -2.175825237423E-02  1.481952393944E-01
C84  1.231746922467E-01 -4.782417476258E-01 -3.518047606056E-01
H85  9.217374522983E-02 -4.439663702632E-01  1.370058325672E-01
H86 -9.217374522983E-02 -5.603362973677E-02 -3.629941674328E-01
H87  9.217374522983E-02  4.439663702632E-01 -1.370058325672E-01
H88 -9.217374522983E-02  5.603362973677E-02  3.629941674328E-01
H89 -9.217374522983E-02  4.439663702632E-01 -1.370058325672E-01
H90  9.217374522983E-02  5.603362973677E-02  3.629941674328E-01
H91 -9.217374522983E-02 -4.439663702632E-01  1.370058325672E-01
H92  9.217374522983E-02 -5.603362973677E-02 -3.629941674328E-01
H93  4.620755906254E-02  3.022643255570E-01  2.107296940468E-01
H94 -4.620755906254E-02  1.977356744430E-01 -2.892703059532E-01
H95  4.620755906254E-02 -3.022643255570E-01 -2.107296940468E-01
H96 -4.620755906254E-02 -1.977356744430E-01  2.892703059532E-01
H97 -4.620755906254E-02 -3.022643255570E-01 -2.107296940468E-01
H98  4.620755906254E-02 -1.977356744430E-01  2.892703059532E-01
H99 -4.620755906254E-02  3.022643255570E-01  2.107296940468E-01
H100  4.620755906254E-02  1.977356744430E-01 -2.892703059532E-01
H101  1.314390212990E-01 -3.348378048443E-01 -2.865514874849E-02
H102 -1.314390212990E-01 -1.651621951557E-01  4.713448512515E-01
H103  1.314390212990E-01  3.348378048443E-01  2.865514874849E-02
H104 -1.314390212990E-01  1.651621951557E-01 -4.713448512515E-01
H105 -1.314390212990E-01  3.348378048443E-01  2.865514874849E-02
H106  1.314390212990E-01  1.651621951557E-01 -4.713448512515E-01
H107 -1.314390212990E-01 -3.348378048443E-01 -2.865514874849E-02
H108  1.314390212990E-01 -1.651621951557E-01  4.713448512515E-01
H109  2.186658282750E-01 -3.429962703318E-01  2.695726125720E-02
H110 -2.186658282750E-01 -1.570037296682E-01 -4.730427387428E-01
H111  2.186658282750E-01  3.429962703318E-01 -2.695726125720E-02
H112 -2.186658282750E-01  1.570037296682E-01  4.730427387428E-01
H113 -2.186658282750E-01  3.429962703318E-01 -2.695726125720E-02
H114  2.186658282750E-01  1.570037296682E-01  4.730427387428E-01
H115 -2.186658282750E-01 -3.429962703318E-01  2.695726125720E-02
H116  2.186658282750E-01 -1.570037296682E-01 -4.730427387428E-01
H117  2.455776756548E-01 -1.422012704341E-01  1.587775137111E-01
H118 -2.455776756548E-01 -3.577987295659E-01 -3.412224862889E-01
H119  2.455776756548E-01  1.422012704341E-01 -1.587775137111E-01
H120 -2.455776756548E-01  3.577987295659E-01  3.412224862889E-01
H121 -2.455776756548E-01  1.422012704341E-01 -1.587775137111E-01
H122  2.455776756548E-01  3.577987295659E-01  3.412224862889E-01
H123 -2.455776756548E-01 -1.422012704341E-01  1.587775137111E-01
H124  2.455776756548E-01 -3.577987295659E-01 -3.412224862889E-01
H125  1.835683223663E-01  6.632341905977E-02  2.365421104866E-01
H126 -1.835683223663E-01  4.336765809402E-01 -2.634578895134E-01
H127  1.835683223663E-01 -6.632341905977E-02 -2.365421104866E-01
H128 -1.835683223663E-01 -4.336765809402E-01  2.634578895134E-01
H129 -1.835683223663E-01 -6.632341905977E-02 -2.365421104866E-01
H130  1.835683223663E-01 -4.336765809402E-01  2.634578895134E-01
H131 -1.835683223663E-01  6.632341905977E-02  2.365421104866E-01
H132  1.835683223663E-01  4.336765809402E-01 -2.634578895134E-01
H133  9.620443670744E-02  6.666766939816E-02  1.830110163756E-01
H134 -9.620443670744E-02  4.333323306018E-01 -3.169889836244E-01
H135  9.620443670744E-02 -6.666766939816E-02 -1.830110163756E-01
H136 -9.620443670744E-02 -4.333323306018E-01  3.169889836244E-01
H137 -9.620443670744E-02 -6.666766939816E-02 -1.830110163756E-01
H138  9.620443670744E-02 -4.333323306018E-01  3.169889836244E-01
H139 -9.620443670744E-02  6.666766939816E-02  1.830110163756E-01
H140  9.620443670744E-02  4.333323306018E-01 -3.169889836244E-01


#===END

data_OPT_STEP_31

_symmetry_space_group_name_H-M 'P 1'
_cell_length_a     26.78900000
_cell_length_b      7.17000000
_cell_length_c     14.21100000
_cell_angle_alpha   90.000000
_cell_angle_beta   90.000000
_cell_angle_gamma   90.000000

loop_
_atom_site_label
_atom_site_fract_x
_atom_site_fract_y
_atom_site_fract_z
C1  2.740720896434E-02  3.352560184834E-19 -2.979503995407E-20
C2 -2.740720896434E-02  5.000000000000E-01 -5.000000000000E-01
C3 -2.740720896434E-02 -3.949153536236E-19 -2.979503995407E-20
C4  2.740720896434E-02  5.000000000000E-01 -5.000000000000E-01
C5  5.319250729294E-02 -1.427659128883E-01  4.960692063538E-02
C6 -5.319250729294E-02 -3.572340871117E-01 -4.503930793646E-01
C7  5.319250729294E-02  1.427659128883E-01 -4.960692063538E-02
C8 -5.319250729294E-02  3.572340871117E-01  4.503930793646E-01
C9 -5.319250729294E-02  1.427659128883E-01 -4.960692063538E-02
C10  5.319250729294E-02  3.572340871117E-01  4.503930793646E-01
C11 -5.319250729294E-02 -1.427659128883E-01  4.960692063538E-02
C12  5.319250729294E-02 -3.572340871117E-01 -4.503930793646E-01
C13  2.686984857012E-02 -2.927663177803E-01  8.854387248954E-02
C14 -2.686984857012E-02 -2.072336822197E-01 -4.114561275105E-01
C15  2.686984857012E-02  2.927663177803E-01 -8.854387248954E-02
C16 -2.686984857012E-02  2.072336822197E-01  4.114561275105E-01
C17 -2.686984857012E-02  2.927663177803E-01 -8.854387248954E-02
C18  2.686984857012E-02  2.072336822197E-01  4.114561275105E-01
C19 -2.686984857012E-02 -2.927663177803E-01  8.854387248954E-02
C20  2.686984857012E-02 -2.072336822197E-01 -4.114561275105E-01
C21  5.190593978694E-02 -4.438801631133E-01  1.347843825923E-01
C22 -5.190593978694E-02 -5.611983688666E-02 -3.652156174077E-01
C23  5.190593978694E-02  4.438801631133E-01 -1.347843825923E-01
C24 -5.190593978694E-02  5.611983688666E-02  3.652156174077E-01
C25 -5.190593978694E-02  4.438801631133E-01 -1.347843825923E-01
C26  5.190593978694E-02  5.611983688666E-02  3.652156174077E-01
C27 -5.190593978694E-02 -4.438801631133E-01  1.347843825923E-01
C28  5.190593978694E-02 -5.611983688666E-02 -3.652156174077E-01
C29  2.644189829354E-02  4.142160112263E-01  1.760574514391E-01
C30 -2.644189829354E-02  8.578398877370E-02 -3.239425485609E-01
C31  2.644189829354E-02 -4.142160112263E-01 -1.760574514391E-01
C32 -2.644189829354E-02 -8.578398877370E-02  3.239425485609E-01
C33 -2.644189829354E-02 -4.142160112263E-01 -1.760574514391E-01
C34  2.644189829354E-02 -8.578398877370E-02  3.239425485609E-01
C35 -2.644189829354E-02  4.142160112263E-01  1.760574514391E-01
C36  2.644189829354E-02  8.578398877370E-02 -3.239425485609E-01
C37  1.076249590819E-01 -1.333537160952E-01  7.326401878654E-02
C38 -1.076249590819E-01 -3.666462839048E-01 -4.267359812135E-01
C39  1.076249590819E-01  1.333537160952E-01 -7.326401878654E-02
C40 -1.076249590819E-01  3.666462839048E-01  4.267359812135E-01
C41 -1.076249590819E-01  1.333537160952E-01 -7.326401878654E-02
C42  1.076249590819E-01  3.666462839048E-01  4.267359812135E-01
C43 -1.076249590819E-01 -1.333537160952E-01  7.326401878654E-02
C44  1.076249590819E-01 -3.666462839048E-01 -4.267359812135E-01
C45  1.428336206029E-01 -2.479972278972E-01  2.979358714324E-02
C46 -1.428336206029E-01 -2.520027721028E-01 -4.702064128568E-01
C47  1.428336206029E-01  2.479972278972E-01 -2.979358714324E-02
C48 -1.428336206029E-01  2.520027721028E-01  4.702064128568E-01
C49 -1.428336206029E-01  2.479972278972E-01 -2.979358714324E-02
C50  1.428336206029E-01  2.520027721028E-01  4.702064128568E-01
C51 -1.428336206029E-01 -2.479972278972E-01  2.979358714324E-02
C52  1.428336206029E-01 -2.520027721028E-01 -4.702064128568E-01
C53  1.919481434767E-01 -2.518515894486E-01  6.080846429587E-02
C54 -1.919481434767E-01 -2.481484105514E-01 -4.391915357041E-01
C55  1.919481434767E-01  2.518515894486E-01 -6.080846429587E-02
C56 -1.919481434767E-01  2.481484105514E-01  4.391915357041E-01
C57 -1.919481434767E-01  2.518515894486E-01 -6.080846429587E-02
C58  1.919481434767E-01  2.481484105514E-01  4.391915357041E-01
C59 -1.919481434767E-01 -2.518515894486E-01  6.080846429587E-02
C60  1.919481434767E-01 -2.481484105514E-01 -4.391915357041E-01
C61  2.071080770523E-01 -1.389692537532E-01  1.351996712021E-01
C62 -2.071080770523E-01 -3.610307462468E-01 -3.648003287979E-01
C63  2.071080770523E-01  1.389692537532E-01 -1.351996712021E-01
C64 -2.071080770523E-01  3.610307462468E-01  3.648003287979E-01
C65 -2.071080770523E-01  1.389692537532E-01 -1.351996712021E-01
C66  2.071080770523E-01  3.610307462468E-01  3.648003287979E-01
C67 -2.071080770523E-01 -1.389692537532E-01  1.351996712021E-01
C68  2.071080770523E-01 -3.610307462468E-01 -3.648003287979E-01
C69  1.724739232660E-01 -2.311540560203E-02  1.787241785966E-01
C70 -1.724739232660E-01 -4.768845943980E-01 -3.212758214034E-01
C71  1.724739232660E-01  2.311540560203E-02 -1.787241785966E-01
C72 -1.724739232660E-01  4.768845943980E-01  3.212758214034E-01
C73 -1.724739232660E-01  2.311540560203E-02 -1.787241785966E-01
C74  1.724739232660E-01  4.768845943980E-01  3.212758214034E-01
C75 -1.724739232660E-01 -2.311540560203E-02  1.787241785966E-01
C76  1.724739232660E-01 -4.768845943980E-01 -3.212758214034E-01
C77  1.231730394520E-01 -2.175425619313E-02  1.481969155211E-01
C78 -1.231730394520E-01 -4.782457438069E-01 -3.518030844789E-01
C79  1.231730394520E-01  2.175425619313E-02 -1.481969155211E-01
C80 -1.231730394520E-01  4.782457438069E-01  3.518030844789E-01
C81 -1.231730394520E-01  2.175425619313E-02 -1.481969155211E-01
C82  1.231730394520E-01  4.782457438069E-01  3.518030844789E-01
C83 -1.231730394520E-01 -2.175425619313E-02  1.481969155211E-01
C84  1.231730394520E-01 -4.782457438069E-01 -3.518030844789E-01
H85  9.217349060192E-02 -4.439707473551E-01  1.370151184951E-01
H86 -9.217349060192E-02 -5.602925264494E-02 -3.629848815049E-01
H87  9.217349060192E-02  4.439707473551E-01 -1.370151184951E-01
H88 -9.217349060192E-02  5.602925264494E-02  3.629848815049E-01
H89 -9.217349060192E-02  4.439707473551E-01 -1.370151184951E-01
H90  9.217349060192E-02  5.602925264494E-02  3.629848815049E-01
H91 -9.217349060192E-02 -4.439707473551E-01  1.370151184951E-01
H92  9.217349060192E-02 -5.602925264494E-02 -3.629848815049E-01
H93  4.620767614815E-02  3.022672341473E-01  2.107269247045E-01
H94 -4.620767614815E-02  1.977327658527E-01 -2.892730752955E-01
H95  4.620767614815E-02 -3.022672341473E-01 -2.107269247045E-01
H96 -4.620767614815E-02 -1.977327658527E-01  2.892730752955E-01
H97 -4.620767614815E-02 -3.022672341473E-01 -2.107269247045E-01
H98  4.620767614815E-02 -1.977327658527E-01  2.892730752955E-01
H99 -4.620767614815E-02  3.022672341473E-01  2.107269247045E-01
H100  4.620767614815E-02  1.977327658527E-01 -2.892730752955E-01
H101  1.314421018859E-01 -3.348289948337E-01 -2.865189543617E-02
H102 -1.314421018859E-01 -1.651710051663E-01  4.713481045638E-01
H103  1.314421018859E-01  3.348289948337E-01  2.865189543617E-02
H104 -1.314421018859E-01  1.651710051663E-01 -4.713481045638E-01
H105 -1.314421018859E-01  3.348289948337E-01  2.865189543617E-02
H106  1.314421018859E-01  1.651710051663E-01 -4.713481045638E-01
H107 -1.314421018859E-01 -3.348289948337E-01 -2.865189543617E-02
H108  1.314421018859E-01 -1.651710051663E-01  4.713481045638E-01
H109  2.186700932152E-01 -3.429614354331E-01  2.696572214530E-02
H110 -2.186700932152E-01 -1.570385645669E-01 -4.730342778547E-01
H111  2.186700932152E-01  3.429614354331E-01 -2.696572214530E-02
H112 -2.186700932152E-01  1.570385645669E-01  4.730342778547E-01
H113 -2.186700932152E-01  3.429614354331E-01 -2.696572214530E-02
H114  2.186700932152E-01  1.570385645669E-01  4.730342778547E-01
H115 -2.186700932152E-01 -3.429614354331E-01  2.696572214530E-02
H116  2.186700932152E-01 -1.570385645669E-01 -4.730342778547E-01
H117  2.455763100591E-01 -1.421769369779E-01  1.587772959282E-01
H118 -2.455763100591E-01 -3.578230630221E-01 -3.412227040718E-01
H119  2.455763100591E-01  1.421769369779E-01 -1.587772959282E-01
H120 -2.455763100591E-01  3.578230630221E-01  3.412227040718E-01
H121 -2.455763100591E-01  1.421769369779E-01 -1.587772959282E-01
H122  2.455763100591E-01  3.578230630221E-01  3.412227040718E-01
H123 -2.455763100591E-01 -1.421769369779E-01  1.587772959282E-01
H124  2.455763100591E-01 -3.578230630221E-01 -3.412227040718E-01
H125  1.835647761296E-01  6.635029717115E-02  2.365385442622E-01
H126 -1.835647761296E-01  4.336497028289E-01 -2.634614557378E-01
H127  1.835647761296E-01 -6.635029717115E-02 -2.365385442622E-01
H128 -1.835647761296E-01 -4.336497028289E-01  2.634614557378E-01
H129 -1.835647761296E-01 -6.635029717115E-02 -2.365385442622E-01
H130  1.835647761296E-01 -4.336497028289E-01  2.634614557378E-01
H131 -1.835647761296E-01  6.635029717115E-02  2.365385442622E-01
H132  1.835647761296E-01  4.336497028289E-01 -2.634614557378E-01
H133  9.620318083996E-02  6.667666722729E-02  1.830110087977E-01
H134 -9.620318083996E-02  4.333233327727E-01 -3.169889912023E-01
H135  9.620318083996E-02 -6.667666722729E-02 -1.830110087977E-01
H136 -9.620318083996E-02 -4.333233327727E-01  3.169889912023E-01
H137 -9.620318083996E-02 -6.667666722729E-02 -1.830110087977E-01
H138  9.620318083996E-02 -4.333233327727E-01  3.169889912023E-01
H139 -9.620318083996E-02  6.667666722729E-02  1.830110087977E-01
H140  9.620318083996E-02  4.333233327727E-01 -3.169889912023E-01


#===END

data_OPT_STEP_32

_symmetry_space_group_name_H-M 'P 1'
_cell_length_a     26.78900000
_cell_length_b      7.17000000
_cell_length_c     14.21100000
_cell_angle_alpha   90.000000
_cell_angle_beta   90.000000
_cell_angle_gamma   90.000000

loop_
_atom_site_label
_atom_site_fract_x
_atom_site_fract_y
_atom_site_fract_z
C1  2.740720896434E-02  3.352560184834E-19 -2.979503995407E-20
C2 -2.740720896434E-02  5.000000000000E-01 -5.000000000000E-01
C3 -2.740720896434E-02 -3.949153536236E-19 -2.979503995407E-20
C4  2.740720896434E-02  5.000000000000E-01 -5.000000000000E-01
C5  5.319250729294E-02 -1.427659128883E-01  4.960692063538E-02
C6 -5.319250729294E-02 -3.572340871117E-01 -4.503930793646E-01
C7  5.319250729294E-02  1.427659128883E-01 -4.960692063538E-02
C8 -5.319250729294E-02  3.572340871117E-01  4.503930793646E-01
C9 -5.319250729294E-02  1.427659128883E-01 -4.960692063538E-02
C10  5.319250729294E-02  3.572340871117E-01  4.503930793646E-01
C11 -5.319250729294E-02 -1.427659128883E-01  4.960692063538E-02
C12  5.319250729294E-02 -3.572340871117E-01 -4.503930793646E-01
C13  2.686984857012E-02 -2.927663177803E-01  8.854387248954E-02
C14 -2.686984857012E-02 -2.072336822197E-01 -4.114561275105E-01
C15  2.686984857012E-02  2.927663177803E-01 -8.854387248954E-02
C16 -2.686984857012E-02  2.072336822197E-01  4.114561275105E-01
C17 -2.686984857012E-02  2.927663177803E-01 -8.854387248954E-02
C18  2.686984857012E-02  2.072336822197E-01  4.114561275105E-01
C19 -2.686984857012E-02 -2.927663177803E-01  8.854387248954E-02
C20  2.686984857012E-02 -2.072336822197E-01 -4.114561275105E-01
C21  5.190593978694E-02 -4.438801631133E-01  1.347843825923E-01
C22 -5.190593978694E-02 -5.611983688666E-02 -3.652156174077E-01
C23  5.190593978694E-02  4.438801631133E-01 -1.347843825923E-01
C24 -5.190593978694E-02  5.611983688666E-02  3.652156174077E-01
C25 -5.190593978694E-02  4.438801631133E-01 -1.347843825923E-01
C26  5.190593978694E-02  5.611983688666E-02  3.652156174077E-01
C27 -5.190593978694E-02 -4.438801631133E-01  1.347843825923E-01
C28  5.190593978694E-02 -5.611983688666E-02 -3.652156174077E-01
C29  2.644189829354E-02  4.142160112263E-01  1.760574514391E-01
C30 -2.644189829354E-02  8.578398877370E-02 -3.239425485609E-01
C31  2.644189829354E-02 -4.142160112263E-01 -1.760574514391E-01
C32 -2.644189829354E-02 -8.578398877370E-02  3.239425485609E-01
C33 -2.644189829354E-02 -4.142160112263E-01 -1.760574514391E-01
C34  2.644189829354E-02 -8.578398877370E-02  3.239425485609E-01
C35 -2.644189829354E-02  4.142160112263E-01  1.760574514391E-01
C36  2.644189829354E-02  8.578398877370E-02 -3.239425485609E-01
C37  1.076249590819E-01 -1.333537160952E-01  7.326401878654E-02
C38 -1.076249590819E-01 -3.666462839048E-01 -4.267359812135E-01
C39  1.076249590819E-01  1.333537160952E-01 -7.326401878654E-02
C40 -1.076249590819E-01  3.666462839048E-01  4.267359812135E-01
C41 -1.076249590819E-01  1.333537160952E-01 -7.326401878654E-02
C42  1.076249590819E-01  3.666462839048E-01  4.267359812135E-01
C43 -1.076249590819E-01 -1.333537160952E-01  7.326401878654E-02
C44  1.076249590819E-01 -3.666462839048E-01 -4.267359812135E-01
C45  1.428336206029E-01 -2.479972278972E-01  2.979358714324E-02
C46 -1.428336206029E-01 -2.520027721028E-01 -4.702064128568E-01
C47  1.428336206029E-01  2.479972278972E-01 -2.979358714324E-02
C48 -1.428336206029E-01  2.520027721028E-01  4.702064128568E-01
C49 -1.428336206029E-01  2.479972278972E-01 -2.979358714324E-02
C50  1.428336206029E-01  2.520027721028E-01  4.702064128568E-01
C51 -1.428336206029E-01 -2.479972278972E-01  2.979358714324E-02
C52  1.428336206029E-01 -2.520027721028E-01 -4.702064128568E-01
C53  1.919481434767E-01 -2.518515894486E-01  6.080846429587E-02
C54 -1.919481434767E-01 -2.481484105514E-01 -4.391915357041E-01
C55  1.919481434767E-01  2.518515894486E-01 -6.080846429587E-02
C56 -1.919481434767E-01  2.481484105514E-01  4.391915357041E-01
C57 -1.919481434767E-01  2.518515894486E-01 -6.080846429587E-02
C58  1.919481434767E-01  2.481484105514E-01  4.391915357041E-01
C59 -1.919481434767E-01 -2.518515894486E-01  6.080846429587E-02
C60  1.919481434767E-01 -2.481484105514E-01 -4.391915357041E-01
C61  2.071080770523E-01 -1.389692537532E-01  1.351996712021E-01
C62 -2.071080770523E-01 -3.610307462468E-01 -3.648003287979E-01
C63  2.071080770523E-01  1.389692537532E-01 -1.351996712021E-01
C64 -2.071080770523E-01  3.610307462468E-01  3.648003287979E-01
C65 -2.071080770523E-01  1.389692537532E-01 -1.351996712021E-01
C66  2.071080770523E-01  3.610307462468E-01  3.648003287979E-01
C67 -2.071080770523E-01 -1.389692537532E-01  1.351996712021E-01
C68  2.071080770523E-01 -3.610307462468E-01 -3.648003287979E-01
C69  1.724739232660E-01 -2.311540560203E-02  1.787241785966E-01
C70 -1.724739232660E-01 -4.768845943980E-01 -3.212758214034E-01
C71  1.724739232660E-01  2.311540560203E-02 -1.787241785966E-01
C72 -1.724739232660E-01  4.768845943980E-01  3.212758214034E-01
C73 -1.724739232660E-01  2.311540560203E-02 -1.787241785966E-01
C74  1.724739232660E-01  4.768845943980E-01  3.212758214034E-01
C75 -1.724739232660E-01 -2.311540560203E-02  1.787241785966E-01
C76  1.724739232660E-01 -4.768845943980E-01 -3.212758214034E-01
C77  1.231730394520E-01 -2.175425619313E-02  1.481969155211E-01
C78 -1.231730394520E-01 -4.782457438069E-01 -3.518030844789E-01
C79  1.231730394520E-01  2.175425619313E-02 -1.481969155211E-01
C80 -1.231730394520E-01  4.782457438069E-01  3.518030844789E-01
C81 -1.231730394520E-01  2.175425619313E-02 -1.481969155211E-01
C82  1.231730394520E-01  4.782457438069E-01  3.518030844789E-01
C83 -1.231730394520E-01 -2.175425619313E-02  1.481969155211E-01
C84  1.231730394520E-01 -4.782457438069E-01 -3.518030844789E-01
H85  9.217349060192E-02 -4.439707473551E-01  1.370151184951E-01
H86 -9.217349060192E-02 -5.602925264494E-02 -3.629848815049E-01
H87  9.217349060192E-02  4.439707473551E-01 -1.370151184951E-01
H88 -9.217349060192E-02  5.602925264494E-02  3.629848815049E-01
H89 -9.217349060192E-02  4.439707473551E-01 -1.370151184951E-01
H90  9.217349060192E-02  5.602925264494E-02  3.629848815049E-01
H91 -9.217349060192E-02 -4.439707473551E-01  1.370151184951E-01
H92  9.217349060192E-02 -5.602925264494E-02 -3.629848815049E-01
H93  4.620767614815E-02  3.022672341473E-01  2.107269247045E-01
H94 -4.620767614815E-02  1.977327658527E-01 -2.892730752955E-01
H95  4.620767614815E-02 -3.022672341473E-01 -2.107269247045E-01
H96 -4.620767614815E-02 -1.977327658527E-01  2.892730752955E-01
H97 -4.620767614815E-02 -3.022672341473E-01 -2.107269247045E-01
H98  4.620767614815E-02 -1.977327658527E-01  2.892730752955E-01
H99 -4.620767614815E-02  3.022672341473E-01  2.107269247045E-01
H100  4.620767614815E-02  1.977327658527E-01 -2.892730752955E-01
H101  1.314421018859E-01 -3.348289948337E-01 -2.865189543617E-02
H102 -1.314421018859E-01 -1.651710051663E-01  4.713481045638E-01
H103  1.314421018859E-01  3.348289948337E-01  2.865189543617E-02
H104 -1.314421018859E-01  1.651710051663E-01 -4.713481045638E-01
H105 -1.314421018859E-01  3.348289948337E-01  2.865189543617E-02
H106  1.314421018859E-01  1.651710051663E-01 -4.713481045638E-01
H107 -1.314421018859E-01 -3.348289948337E-01 -2.865189543617E-02
H108  1.314421018859E-01 -1.651710051663E-01  4.713481045638E-01
H109  2.186700932152E-01 -3.429614354331E-01  2.696572214530E-02
H110 -2.186700932152E-01 -1.570385645669E-01 -4.730342778547E-01
H111  2.186700932152E-01  3.429614354331E-01 -2.696572214530E-02
H112 -2.186700932152E-01  1.570385645669E-01  4.730342778547E-01
H113 -2.186700932152E-01  3.429614354331E-01 -2.696572214530E-02
H114  2.186700932152E-01  1.570385645669E-01  4.730342778547E-01
H115 -2.186700932152E-01 -3.429614354331E-01  2.696572214530E-02
H116  2.186700932152E-01 -1.570385645669E-01 -4.730342778547E-01
H117  2.455763100591E-01 -1.421769369779E-01  1.587772959282E-01
H118 -2.455763100591E-01 -3.578230630221E-01 -3.412227040718E-01
H119  2.455763100591E-01  1.421769369779E-01 -1.587772959282E-01
H120 -2.455763100591E-01  3.578230630221E-01  3.412227040718E-01
H121 -2.455763100591E-01  1.421769369779E-01 -1.587772959282E-01
H122  2.455763100591E-01  3.578230630221E-01  3.412227040718E-01
H123 -2.455763100591E-01 -1.421769369779E-01  1.587772959282E-01
H124  2.455763100591E-01 -3.578230630221E-01 -3.412227040718E-01
H125  1.835647761296E-01  6.635029717115E-02  2.365385442622E-01
H126 -1.835647761296E-01  4.336497028289E-01 -2.634614557378E-01
H127  1.835647761296E-01 -6.635029717115E-02 -2.365385442622E-01
H128 -1.835647761296E-01 -4.336497028289E-01  2.634614557378E-01
H129 -1.835647761296E-01 -6.635029717115E-02 -2.365385442622E-01
H130  1.835647761296E-01 -4.336497028289E-01  2.634614557378E-01
H131 -1.835647761296E-01  6.635029717115E-02  2.365385442622E-01
H132  1.835647761296E-01  4.336497028289E-01 -2.634614557378E-01
H133  9.620318083996E-02  6.667666722729E-02  1.830110087977E-01
H134 -9.620318083996E-02  4.333233327727E-01 -3.169889912023E-01
H135  9.620318083996E-02 -6.667666722729E-02 -1.830110087977E-01
H136 -9.620318083996E-02 -4.333233327727E-01  3.169889912023E-01
H137 -9.620318083996E-02 -6.667666722729E-02 -1.830110087977E-01
H138  9.620318083996E-02 -4.333233327727E-01  3.169889912023E-01
H139 -9.620318083996E-02  6.667666722729E-02  1.830110087977E-01
H140  9.620318083996E-02  4.333233327727E-01 -3.169889912023E-01


#===END
